# generated using pymatgen
data_C
_symmetry_space_group_name_H-M   'P 1'
_cell_length_a   2.52601808
_cell_length_b   4.15959461
_cell_length_c   9.07208780
_cell_angle_alpha   90.00000000
_cell_angle_beta   90.00000000
_cell_angle_gamma   90.00000000
_symmetry_Int_Tables_number   1
_chemical_formula_structural   C
_chemical_formula_sum   C16
_cell_volume   95.32234245
_cell_formula_units_Z   16
loop_
 _symmetry_equiv_pos_site_id
 _symmetry_equiv_pos_as_xyz
  1  'x, y, z'
loop_
 _atom_site_type_symbol
 _atom_site_label
 _atom_site_symmetry_multiplicity
 _atom_site_fract_x
 _atom_site_fract_y
 _atom_site_fract_z
 _atom_site_occupancy
  C  C0  1  0.750000  0.423520  0.695227  1
  C  C1  1  0.750000  0.076480  0.195227  1
  C  C2  1  0.250000  0.576480  0.304773  1
  C  C3  1  0.250000  0.923520  0.804773  1
  C  C4  1  0.250000  0.198409  0.689480  1
  C  C5  1  0.250000  0.301591  0.189480  1
  C  C6  1  0.750000  0.801591  0.310520  1
  C  C7  1  0.750000  0.698409  0.810520  1
  C  C8  1  0.250000  0.408205  0.020556  1
  C  C9  1  0.250000  0.091795  0.520556  1
  C  C10  1  0.750000  0.591795  0.979444  1
  C  C11  1  0.750000  0.908205  0.479444  1
  C  C12  1  0.250000  0.068374  0.963167  1
  C  C13  1  0.250000  0.431626  0.463167  1
  C  C14  1  0.750000  0.931626  0.036833  1
  C  C15  1  0.750000  0.568374  0.536833  1
