# generated using pymatgen
data_C
_symmetry_space_group_name_H-M   'P 1'
_cell_length_a   14.29570032
_cell_length_b   14.29570032
_cell_length_c   14.29570032
_cell_angle_alpha   90.00000000
_cell_angle_beta   90.00000000
_cell_angle_gamma   90.00000000
_symmetry_Int_Tables_number   1
_chemical_formula_structural   C
_chemical_formula_sum   C240
_cell_volume   2921.57006833
_cell_formula_units_Z   240
loop_
 _symmetry_equiv_pos_site_id
 _symmetry_equiv_pos_as_xyz
  1  'x, y, z'
loop_
 _atom_site_type_symbol
 _atom_site_label
 _atom_site_symmetry_multiplicity
 _atom_site_fract_x
 _atom_site_fract_y
 _atom_site_fract_z
 _atom_site_occupancy
  C  C0  1  0.399630  0.724993  0.967534  1
  C  C1  1  0.600371  0.224993  0.532466  1
  C  C2  1  0.100371  0.275007  0.467534  1
  C  C3  1  0.899629  0.775007  0.032466  1
  C  C4  1  0.967534  0.399630  0.724993  1
  C  C5  1  0.532466  0.600371  0.224993  1
  C  C6  1  0.467534  0.100371  0.275007  1
  C  C7  1  0.032466  0.899629  0.775007  1
  C  C8  1  0.724993  0.967534  0.399630  1
  C  C9  1  0.224993  0.532466  0.600371  1
  C  C10  1  0.275007  0.467534  0.100371  1
  C  C11  1  0.775007  0.032466  0.899629  1
  C  C12  1  0.600371  0.275007  0.032466  1
  C  C13  1  0.399630  0.775007  0.467534  1
  C  C14  1  0.899629  0.724993  0.532466  1
  C  C15  1  0.100371  0.224993  0.967534  1
  C  C16  1  0.032466  0.600371  0.275007  1
  C  C17  1  0.467534  0.399630  0.775007  1
  C  C18  1  0.532466  0.899629  0.724993  1
  C  C19  1  0.967534  0.100371  0.224993  1
  C  C20  1  0.275007  0.032466  0.600371  1
  C  C21  1  0.775007  0.467534  0.399630  1
  C  C22  1  0.724993  0.532466  0.899629  1
  C  C23  1  0.224993  0.967534  0.100371  1
  C  C24  1  0.493610  0.742233  0.946052  1
  C  C25  1  0.506390  0.242233  0.553948  1
  C  C26  1  0.006390  0.257767  0.446052  1
  C  C27  1  0.993610  0.757767  0.053948  1
  C  C28  1  0.946052  0.493610  0.742233  1
  C  C29  1  0.553948  0.506390  0.242233  1
  C  C30  1  0.446052  0.006390  0.257767  1
  C  C31  1  0.053948  0.993610  0.757767  1
  C  C32  1  0.742233  0.946052  0.493610  1
  C  C33  1  0.242233  0.553948  0.506390  1
  C  C34  1  0.257767  0.446052  0.006390  1
  C  C35  1  0.757767  0.053948  0.993610  1
  C  C36  1  0.506390  0.257767  0.053948  1
  C  C37  1  0.493610  0.757767  0.446052  1
  C  C38  1  0.993610  0.742233  0.553948  1
  C  C39  1  0.006390  0.242233  0.946052  1
  C  C40  1  0.053948  0.506390  0.257767  1
  C  C41  1  0.446052  0.493610  0.757767  1
  C  C42  1  0.553948  0.993610  0.742233  1
  C  C43  1  0.946052  0.006390  0.242233  1
  C  C44  1  0.257767  0.053948  0.506390  1
  C  C45  1  0.757767  0.446052  0.493610  1
  C  C46  1  0.742233  0.553948  0.993610  1
  C  C47  1  0.242233  0.946052  0.006390  1
  C  C48  1  0.372164  0.704062  0.063137  1
  C  C49  1  0.627836  0.204062  0.436863  1
  C  C50  1  0.127836  0.295938  0.563137  1
  C  C51  1  0.872164  0.795938  0.936863  1
  C  C52  1  0.063137  0.372164  0.704062  1
  C  C53  1  0.436863  0.627836  0.204062  1
  C  C54  1  0.563137  0.127836  0.295938  1
  C  C55  1  0.936863  0.872164  0.795938  1
  C  C56  1  0.704062  0.063137  0.372164  1
  C  C57  1  0.204062  0.436863  0.627836  1
  C  C58  1  0.295938  0.563137  0.127836  1
  C  C59  1  0.795938  0.936863  0.872164  1
  C  C60  1  0.627836  0.295938  0.936863  1
  C  C61  1  0.372164  0.795938  0.563137  1
  C  C62  1  0.872164  0.704062  0.436863  1
  C  C63  1  0.127836  0.204062  0.063137  1
  C  C64  1  0.936863  0.627836  0.295938  1
  C  C65  1  0.563137  0.372164  0.795938  1
  C  C66  1  0.436863  0.872164  0.704062  1
  C  C67  1  0.063137  0.127836  0.204062  1
  C  C68  1  0.295938  0.936863  0.627836  1
  C  C69  1  0.795938  0.563137  0.372164  1
  C  C70  1  0.704062  0.436863  0.872164  1
  C  C71  1  0.204062  0.063137  0.127836  1
  C  C72  1  0.534812  0.703117  0.861609  1
  C  C73  1  0.465188  0.203117  0.638391  1
  C  C74  1  0.965188  0.296883  0.361609  1
  C  C75  1  0.034812  0.796883  0.138391  1
  C  C76  1  0.861609  0.534812  0.703117  1
  C  C77  1  0.638391  0.465188  0.203117  1
  C  C78  1  0.361609  0.965188  0.296883  1
  C  C79  1  0.138391  0.034812  0.796883  1
  C  C80  1  0.703117  0.861609  0.534812  1
  C  C81  1  0.203117  0.638391  0.465188  1
  C  C82  1  0.296883  0.361609  0.965188  1
  C  C83  1  0.796883  0.138391  0.034812  1
  C  C84  1  0.465188  0.296883  0.138391  1
  C  C85  1  0.534812  0.796883  0.361609  1
  C  C86  1  0.034812  0.703117  0.638391  1
  C  C87  1  0.965188  0.203117  0.861609  1
  C  C88  1  0.138391  0.465188  0.296883  1
  C  C89  1  0.361609  0.534812  0.796883  1
  C  C90  1  0.638391  0.034812  0.703117  1
  C  C91  1  0.861609  0.965188  0.203117  1
  C  C92  1  0.296883  0.138391  0.465188  1
  C  C93  1  0.796883  0.361609  0.534812  1
  C  C94  1  0.703117  0.638391  0.034812  1
  C  C95  1  0.203117  0.861609  0.965188  1
  C  C96  1  0.342974  0.667929  0.905323  1
  C  C97  1  0.657026  0.167929  0.594677  1
  C  C98  1  0.157026  0.332071  0.405323  1
  C  C99  1  0.842974  0.832071  0.094677  1
  C  C100  1  0.905323  0.342974  0.667929  1
  C  C101  1  0.594677  0.657026  0.167929  1
  C  C102  1  0.405323  0.157026  0.332071  1
  C  C103  1  0.094677  0.842974  0.832071  1
  C  C104  1  0.667929  0.905323  0.342974  1
  C  C105  1  0.167929  0.594677  0.657026  1
  C  C106  1  0.332071  0.405323  0.157026  1
  C  C107  1  0.832071  0.094677  0.842974  1
  C  C108  1  0.657026  0.332071  0.094677  1
  C  C109  1  0.342974  0.832071  0.405323  1
  C  C110  1  0.842974  0.667929  0.594677  1
  C  C111  1  0.157026  0.167929  0.905323  1
  C  C112  1  0.094677  0.657026  0.332071  1
  C  C113  1  0.405323  0.342974  0.832071  1
  C  C114  1  0.594677  0.842974  0.667929  1
  C  C115  1  0.905323  0.157026  0.167929  1
  C  C116  1  0.332071  0.094677  0.657026  1
  C  C117  1  0.832071  0.405323  0.342974  1
  C  C118  1  0.667929  0.594677  0.842974  1
  C  C119  1  0.167929  0.905323  0.157026  1
  C  C120  1  0.537444  0.719521  0.111461  1
  C  C121  1  0.462556  0.219521  0.388539  1
  C  C122  1  0.962556  0.280479  0.611461  1
  C  C123  1  0.037444  0.780479  0.888539  1
  C  C124  1  0.111461  0.537444  0.719521  1
  C  C125  1  0.388539  0.462556  0.219521  1
  C  C126  1  0.611461  0.962556  0.280479  1
  C  C127  1  0.888539  0.037444  0.780479  1
  C  C128  1  0.719521  0.111461  0.537444  1
  C  C129  1  0.219521  0.388539  0.462556  1
  C  C130  1  0.280479  0.611461  0.962556  1
  C  C131  1  0.780479  0.888539  0.037444  1
  C  C132  1  0.462556  0.280479  0.888539  1
  C  C133  1  0.537444  0.780479  0.611461  1
  C  C134  1  0.037444  0.719521  0.388539  1
  C  C135  1  0.962556  0.219521  0.111461  1
  C  C136  1  0.888539  0.462556  0.280479  1
  C  C137  1  0.611461  0.537444  0.780479  1
  C  C138  1  0.388539  0.037444  0.719521  1
  C  C139  1  0.111461  0.962556  0.219521  1
  C  C140  1  0.280479  0.888539  0.462556  1
  C  C141  1  0.780479  0.611461  0.537444  1
  C  C142  1  0.719521  0.388539  0.037444  1
  C  C143  1  0.219521  0.111461  0.962556  1
  C  C144  1  0.563828  0.739695  0.019254  1
  C  C145  1  0.436172  0.239695  0.480746  1
  C  C146  1  0.936172  0.260305  0.519254  1
  C  C147  1  0.063828  0.760305  0.980746  1
  C  C148  1  0.019254  0.563828  0.739695  1
  C  C149  1  0.480746  0.436172  0.239695  1
  C  C150  1  0.519254  0.936172  0.260305  1
  C  C151  1  0.980746  0.063828  0.760305  1
  C  C152  1  0.739695  0.019254  0.563828  1
  C  C153  1  0.239695  0.480746  0.436172  1
  C  C154  1  0.260305  0.519254  0.936172  1
  C  C155  1  0.760305  0.980746  0.063828  1
  C  C156  1  0.436172  0.260305  0.980746  1
  C  C157  1  0.563828  0.760305  0.519254  1
  C  C158  1  0.063828  0.739695  0.480746  1
  C  C159  1  0.936172  0.239695  0.019254  1
  C  C160  1  0.980746  0.436172  0.260305  1
  C  C161  1  0.519254  0.563828  0.760305  1
  C  C162  1  0.480746  0.063828  0.739695  1
  C  C163  1  0.019254  0.936172  0.239695  1
  C  C164  1  0.260305  0.980746  0.436172  1
  C  C165  1  0.760305  0.519254  0.563828  1
  C  C166  1  0.739695  0.480746  0.063828  1
  C  C167  1  0.239695  0.019254  0.936172  1
  C  C168  1  0.439913  0.701311  0.133825  1
  C  C169  1  0.560087  0.201311  0.366175  1
  C  C170  1  0.060087  0.298689  0.633825  1
  C  C171  1  0.939913  0.798689  0.866175  1
  C  C172  1  0.133825  0.439913  0.701311  1
  C  C173  1  0.366175  0.560087  0.201311  1
  C  C174  1  0.633825  0.060087  0.298689  1
  C  C175  1  0.866175  0.939913  0.798689  1
  C  C176  1  0.701311  0.133825  0.439913  1
  C  C177  1  0.201311  0.366175  0.560087  1
  C  C178  1  0.298689  0.633825  0.060087  1
  C  C179  1  0.798689  0.866175  0.939913  1
  C  C180  1  0.560087  0.298689  0.866175  1
  C  C181  1  0.439913  0.798689  0.633825  1
  C  C182  1  0.939913  0.701311  0.366175  1
  C  C183  1  0.060087  0.201311  0.133825  1
  C  C184  1  0.866175  0.560087  0.298689  1
  C  C185  1  0.633825  0.439913  0.798689  1
  C  C186  1  0.366175  0.939913  0.701311  1
  C  C187  1  0.133825  0.060087  0.201311  1
  C  C188  1  0.298689  0.866175  0.560087  1
  C  C189  1  0.798689  0.633825  0.439913  1
  C  C190  1  0.701311  0.366175  0.939913  1
  C  C191  1  0.201311  0.133825  0.060087  1
  C  C192  1  0.480226  0.648184  0.801623  1
  C  C193  1  0.519774  0.148184  0.698377  1
  C  C194  1  0.019774  0.351816  0.301623  1
  C  C195  1  0.980226  0.851816  0.198377  1
  C  C196  1  0.801623  0.480226  0.648184  1
  C  C197  1  0.698377  0.519774  0.148184  1
  C  C198  1  0.301623  0.019774  0.351816  1
  C  C199  1  0.198377  0.980226  0.851816  1
  C  C200  1  0.648184  0.801623  0.480226  1
  C  C201  1  0.148184  0.698377  0.519774  1
  C  C202  1  0.351816  0.301623  0.019774  1
  C  C203  1  0.851816  0.198377  0.980226  1
  C  C204  1  0.519774  0.351816  0.198377  1
  C  C205  1  0.480226  0.851816  0.301623  1
  C  C206  1  0.980226  0.648184  0.698377  1
  C  C207  1  0.019774  0.148184  0.801623  1
  C  C208  1  0.198377  0.519774  0.351816  1
  C  C209  1  0.301623  0.480226  0.851816  1
  C  C210  1  0.698377  0.980226  0.648184  1
  C  C211  1  0.801623  0.019774  0.148184  1
  C  C212  1  0.351816  0.198377  0.519774  1
  C  C213  1  0.851816  0.301623  0.480226  1
  C  C214  1  0.648184  0.698377  0.980226  1
  C  C215  1  0.148184  0.801623  0.019774  1
  C  C216  1  0.382696  0.630239  0.823966  1
  C  C217  1  0.617304  0.130239  0.676034  1
  C  C218  1  0.117304  0.369761  0.323966  1
  C  C219  1  0.882696  0.869761  0.176034  1
  C  C220  1  0.823966  0.382696  0.630239  1
  C  C221  1  0.676034  0.617304  0.130239  1
  C  C222  1  0.323966  0.117304  0.369761  1
  C  C223  1  0.176034  0.882696  0.869761  1
  C  C224  1  0.630239  0.823966  0.382696  1
  C  C225  1  0.130239  0.676034  0.617304  1
  C  C226  1  0.369761  0.323966  0.117304  1
  C  C227  1  0.869761  0.176034  0.882696  1
  C  C228  1  0.617304  0.369761  0.176034  1
  C  C229  1  0.382696  0.869761  0.323966  1
  C  C230  1  0.882696  0.630239  0.676034  1
  C  C231  1  0.117304  0.130239  0.823966  1
  C  C232  1  0.176034  0.617304  0.369761  1
  C  C233  1  0.323966  0.382696  0.869761  1
  C  C234  1  0.676034  0.882696  0.630239  1
  C  C235  1  0.823966  0.117304  0.130239  1
  C  C236  1  0.369761  0.176034  0.617304  1
  C  C237  1  0.869761  0.323966  0.382696  1
  C  C238  1  0.630239  0.676034  0.882696  1
  C  C239  1  0.130239  0.823966  0.117304  1
