# generated using pymatgen
data_C
_symmetry_space_group_name_H-M   'P 1'
_cell_length_a   2.52566044
_cell_length_b   4.15145963
_cell_length_c   4.76300950
_cell_angle_alpha   96.77662789
_cell_angle_beta   105.37483856
_cell_angle_gamma   90.00000000
_symmetry_Int_Tables_number   1
_chemical_formula_structural   C
_chemical_formula_sum   C8
_cell_volume   47.79175961
_cell_formula_units_Z   8
loop_
 _symmetry_equiv_pos_site_id
 _symmetry_equiv_pos_as_xyz
  1  'x, y, z'
loop_
 _atom_site_type_symbol
 _atom_site_label
 _atom_site_symmetry_multiplicity
 _atom_site_fract_x
 _atom_site_fract_y
 _atom_site_fract_z
 _atom_site_occupancy
  C  C0  1  0.057141  0.879236  0.114282  1
  C  C1  1  0.942859  0.120764  0.885718  1
  C  C2  1  0.558080  0.653641  0.116160  1
  C  C3  1  0.441920  0.346359  0.883840  1
  C  C4  1  0.214232  0.059270  0.428464  1
  C  C5  1  0.785768  0.940730  0.571536  1
  C  C6  1  0.728733  0.585602  0.457465  1
  C  C7  1  0.271267  0.414398  0.542535  1
