# generated using pymatgen
data_C
_symmetry_space_group_name_H-M   'P 1'
_cell_length_a   10.90004756
_cell_length_b   14.52495374
_cell_length_c   9.33519596
_cell_angle_alpha   90.00000000
_cell_angle_beta   90.00000000
_cell_angle_gamma   90.00000000
_symmetry_Int_Tables_number   1
_chemical_formula_structural   C
_chemical_formula_sum   C80
_cell_volume   1477.97330407
_cell_formula_units_Z   80
loop_
 _symmetry_equiv_pos_site_id
 _symmetry_equiv_pos_as_xyz
  1  'x, y, z'
loop_
 _atom_site_type_symbol
 _atom_site_label
 _atom_site_symmetry_multiplicity
 _atom_site_fract_x
 _atom_site_fract_y
 _atom_site_fract_z
 _atom_site_occupancy
  C  C0  1  0.266980  0.886876  0.165118  1
  C  C1  1  0.766980  0.613124  0.834882  1
  C  C2  1  0.733020  0.386876  0.334882  1
  C  C3  1  0.233020  0.113124  0.665118  1
  C  C4  1  0.165751  0.826578  0.156643  1
  C  C5  1  0.665751  0.673422  0.843357  1
  C  C6  1  0.834249  0.326578  0.343357  1
  C  C7  1  0.334249  0.173422  0.656643  1
  C  C8  1  0.082725  0.665411  0.120897  1
  C  C9  1  0.582725  0.834589  0.879103  1
  C  C10  1  0.917275  0.165411  0.379103  1
  C  C11  1  0.417275  0.334589  0.620897  1
  C  C12  1  0.048880  0.585511  0.097701  1
  C  C13  1  0.548880  0.914489  0.902299  1
  C  C14  1  0.951120  0.085511  0.402299  1
  C  C15  1  0.451120  0.414489  0.597701  1
  C  C16  1  0.257901  0.311960  0.052593  1
  C  C17  1  0.757901  0.188040  0.947407  1
  C  C18  1  0.742099  0.811960  0.447407  1
  C  C19  1  0.242099  0.688040  0.552593  1
  C  C20  1  0.370973  0.336179  0.041982  1
  C  C21  1  0.870973  0.163821  0.958018  1
  C  C22  1  0.629027  0.836179  0.458018  1
  C  C23  1  0.129027  0.663821  0.541982  1
  C  C24  1  0.395785  0.425328  0.047015  1
  C  C25  1  0.895785  0.074672  0.952985  1
  C  C26  1  0.604215  0.925328  0.452985  1
  C  C27  1  0.104215  0.574672  0.547015  1
  C  C28  1  0.370174  0.512162  0.040569  1
  C  C29  1  0.870174  0.987838  0.959431  1
  C  C30  1  0.629826  0.012162  0.459431  1
  C  C31  1  0.129826  0.487838  0.540569  1
  C  C32  1  0.394434  0.755723  0.110173  1
  C  C33  1  0.894434  0.744277  0.889827  1
  C  C34  1  0.605566  0.255723  0.389827  1
  C  C35  1  0.105566  0.244277  0.610173  1
  C  C36  1  0.382413  0.841338  0.137404  1
  C  C37  1  0.882413  0.658662  0.862596  1
  C  C38  1  0.617587  0.341338  0.362596  1
  C  C39  1  0.117587  0.158662  0.637404  1
  C  C40  1  0.174232  0.734765  0.127208  1
  C  C41  1  0.674232  0.765235  0.872792  1
  C  C42  1  0.825768  0.234765  0.372792  1
  C  C43  1  0.325768  0.265235  0.627208  1
  C  C44  1  0.106347  0.504003  0.042046  1
  C  C45  1  0.606347  0.995997  0.957954  1
  C  C46  1  0.893653  0.004003  0.457954  1
  C  C47  1  0.393653  0.495997  0.542046  1
  C  C48  1  0.309635  0.597835  0.055829  1
  C  C49  1  0.809635  0.902165  0.944171  1
  C  C50  1  0.690365  0.097835  0.444171  1
  C  C51  1  0.190365  0.402165  0.555829  1
  C  C52  1  0.302036  0.692528  0.095202  1
  C  C53  1  0.802036  0.807472  0.904798  1
  C  C54  1  0.697964  0.192528  0.404798  1
  C  C55  1  0.197964  0.307472  0.595202  1
  C  C56  1  0.266833  0.060635  0.245758  1
  C  C57  1  0.766833  0.439365  0.754242  1
  C  C58  1  0.733167  0.560635  0.254242  1
  C  C59  1  0.233167  0.939365  0.745758  1
  C  C60  1  0.287669  0.143935  0.292721  1
  C  C61  1  0.787669  0.356065  0.707279  1
  C  C62  1  0.712331  0.643935  0.207279  1
  C  C63  1  0.212331  0.856065  0.792721  1
  C  C64  1  0.257758  0.977158  0.203258  1
  C  C65  1  0.757758  0.522842  0.796742  1
  C  C66  1  0.742242  0.477158  0.296742  1
  C  C67  1  0.242242  0.022843  0.703258  1
  C  C68  1  0.139864  0.329067  0.023351  1
  C  C69  1  0.639864  0.170933  0.976649  1
  C  C70  1  0.860136  0.829067  0.476649  1
  C  C71  1  0.360136  0.670933  0.523351  1
  C  C72  1  0.093596  0.408549  0.039148  1
  C  C73  1  0.593596  0.091451  0.960852  1
  C  C74  1  0.906404  0.908549  0.460852  1
  C  C75  1  0.406404  0.591451  0.539148  1
  C  C76  1  0.227423  0.531218  0.025188  1
  C  C77  1  0.727423  0.968782  0.974812  1
  C  C78  1  0.772577  0.031218  0.474812  1
  C  C79  1  0.272577  0.468782  0.525188  1
