# generated using pymatgen
data_C
_symmetry_space_group_name_H-M   'P 1'
_cell_length_a   7.49673508
_cell_length_b   14.84825183
_cell_length_c   14.77673724
_cell_angle_alpha   120.15816756
_cell_angle_beta   90.00988461
_cell_angle_gamma   90.00026848
_symmetry_Int_Tables_number   1
_chemical_formula_structural   C
_chemical_formula_sum   C71
_cell_volume   1422.20524038
_cell_formula_units_Z   71
loop_
 _symmetry_equiv_pos_site_id
 _symmetry_equiv_pos_as_xyz
  1  'x, y, z'
loop_
 _atom_site_type_symbol
 _atom_site_label
 _atom_site_symmetry_multiplicity
 _atom_site_fract_x
 _atom_site_fract_y
 _atom_site_fract_z
 _atom_site_occupancy
  C  C0  1  0.505786  0.056211  0.277516  1
  C  C1  1  0.504041  0.222177  0.944756  1
  C  C2  1  0.503693  0.721894  0.776555  1
  C  C3  1  0.505785  0.221303  0.277514  1
  C  C4  1  0.504039  0.722579  0.944764  1
  C  C5  1  0.503700  0.054665  0.776560  1
  C  C6  1  0.508254  0.000175  0.166190  1
  C  C7  1  0.506993  0.165977  0.999454  1
  C  C8  1  0.506330  0.832880  0.831847  1
  C  C9  1  0.508252  0.166009  0.166188  1
  C  C10  1  0.506991  0.833475  0.999459  1
  C  C11  1  0.506333  0.998967  0.831848  1
  C  C12  1  0.505123  0.500304  0.667271  1
  C  C13  1  0.505756  0.167171  0.500592  1
  C  C14  1  0.505291  0.334316  0.835103  1
  C  C15  1  0.505124  0.166973  0.667273  1
  C  C16  1  0.505756  0.333426  0.500591  1
  C  C17  1  0.505291  0.500790  0.835104  1
  C  C18  1  0.499674  0.056665  0.444647  1
  C  C19  1  0.499476  0.389792  0.946417  1
  C  C20  1  0.499431  0.555470  0.611608  1
  C  C21  1  0.499673  0.387987  0.444643  1
  C  C22  1  0.499476  0.556627  0.946420  1
  C  C23  1  0.499435  0.056149  0.611616  1
  C  C24  1  0.498951  0.001844  0.333592  1
  C  C25  1  0.498373  0.333616  0.001136  1
  C  C26  1  0.498247  0.666123  0.664924  1
  C  C27  1  0.498951  0.331742  0.333588  1
  C  C28  1  0.498372  0.667519  0.001150  1
  C  C29  1  0.498256  0.998812  0.664933  1
  C  C30  1  0.491910  0.891473  0.277454  1
  C  C31  1  0.492061  0.388983  0.112764  1
  C  C32  1  0.492908  0.721288  0.607902  1
  C  C33  1  0.491910  0.385969  0.277446  1
  C  C34  1  0.492054  0.723778  0.112787  1
  C  C35  1  0.492913  0.886633  0.607919  1
  C  C36  1  0.484525  0.836836  0.333691  1
  C  C37  1  0.484738  0.501823  0.170725  1
  C  C38  1  0.486911  0.664782  0.494601  1
  C  C39  1  0.484523  0.496840  0.333678  1
  C  C40  1  0.484734  0.668897  0.170762  1
  C  C41  1  0.486916  0.829858  0.494629  1
  C  C42  1  0.504407  0.889327  0.110550  1
  C  C43  1  0.504407  0.221218  0.110548  1
  C  C44  1  0.503434  0.887991  0.775984  1
  C  C45  1  0.495395  0.834539  0.166741  1
  C  C46  1  0.495396  0.332188  0.166731  1
  C  C47  1  0.495925  0.831928  0.663853  1
  C  C48  1  0.480059  0.729906  0.279689  1
  C  C49  1  0.480050  0.549717  0.279625  1
  C  C50  1  0.484161  0.719553  0.439047  1
  C  C51  1  0.505174  0.666724  0.833066  1
  C  C52  1  0.507338  0.166776  0.333557  1
  C  C53  1  0.505177  0.166340  0.833064  1
  C  C54  1  0.505877  0.556072  0.778772  1
  C  C55  1  0.507121  0.222396  0.444787  1
  C  C56  1  0.505878  0.222704  0.778774  1
  C  C57  1  0.507395  0.389187  0.611999  1
  C  C58  1  0.507395  0.222818  0.611999  1
  C  C59  1  0.507379  0.389710  0.779416  1
  C  C60  1  0.509020  0.333899  0.667795  1
  C  C61  1  0.494951  0.000550  0.500043  1
  C  C62  1  0.494882  0.501701  0.003402  1
  C  C63  1  0.494951  0.499501  0.500034  1
  C  C64  1  0.487443  0.891353  0.444784  1
  C  C65  1  0.486656  0.557027  0.114062  1
  C  C66  1  0.487437  0.553440  0.444767  1
  C  C67  1  0.510177  0.054797  0.943345  1
  C  C68  1  0.510175  0.888547  0.943345  1
  C  C69  1  0.511604  0.055176  0.110355  1
  C  C70  1  0.512098  0.999451  0.998907  1
