# generated using pymatgen
data_C
_symmetry_space_group_name_H-M   'P 1'
_cell_length_a   7.76268092
_cell_length_b   7.76268092
_cell_length_c   7.76268092
_cell_angle_alpha   109.47122063
_cell_angle_beta   109.47122063
_cell_angle_gamma   109.47122063
_symmetry_Int_Tables_number   1
_chemical_formula_structural   C
_chemical_formula_sum   C29
_cell_volume   360.09186904
_cell_formula_units_Z   29
loop_
 _symmetry_equiv_pos_site_id
 _symmetry_equiv_pos_as_xyz
  1  'x, y, z'
loop_
 _atom_site_type_symbol
 _atom_site_label
 _atom_site_symmetry_multiplicity
 _atom_site_fract_x
 _atom_site_fract_y
 _atom_site_fract_z
 _atom_site_occupancy
  C  C0  1  -0.000000  -0.000000  -0.000000  1
  C  C1  1  0.376939  0.277124  0.000000  1
  C  C2  1  0.099815  0.722876  0.722876  1
  C  C3  1  0.376939  -0.000000  0.277124  1
  C  C4  1  0.277124  0.376939  -0.000000  1
  C  C5  1  -0.000000  0.376939  0.277124  1
  C  C6  1  0.722876  0.099815  0.722876  1
  C  C7  1  0.722876  0.722876  0.099815  1
  C  C8  1  0.000000  0.277124  0.376939  1
  C  C9  1  0.277124  -0.000000  0.376939  1
  C  C10  1  0.623061  0.623061  0.900185  1
  C  C11  1  0.900185  0.623061  0.623061  1
  C  C12  1  0.623061  0.900185  0.623061  1
  C  C13  1  0.809281  0.000000  -0.000000  1
  C  C14  1  0.000000  0.809281  0.000000  1
  C  C15  1  0.000000  -0.000000  0.809281  1
  C  C16  1  0.190719  0.190719  0.190719  1
  C  C17  1  0.410398  0.114232  0.000000  1
  C  C18  1  0.296166  0.885768  0.885768  1
  C  C19  1  0.410398  -0.000000  0.114232  1
  C  C20  1  0.114232  0.410398  0.000000  1
  C  C21  1  -0.000000  0.410398  0.114232  1
  C  C22  1  0.885768  0.296166  0.885768  1
  C  C23  1  0.885768  0.885768  0.296166  1
  C  C24  1  0.000000  0.114232  0.410398  1
  C  C25  1  0.114232  -0.000000  0.410398  1
  C  C26  1  0.589602  0.589602  0.703834  1
  C  C27  1  0.703834  0.589602  0.589602  1
  C  C28  1  0.589602  0.703834  0.589602  1
