# generated using pymatgen
data_C
_symmetry_space_group_name_H-M   'P 1'
_cell_length_a   6.79187370
_cell_length_b   8.96410848
_cell_length_c   8.96410848
_cell_angle_alpha   81.74855585
_cell_angle_beta   67.73833006
_cell_angle_gamma   67.73833006
_symmetry_Int_Tables_number   1
_chemical_formula_structural   C
_chemical_formula_sum   C20
_cell_volume   467.43612093
_cell_formula_units_Z   20
loop_
 _symmetry_equiv_pos_site_id
 _symmetry_equiv_pos_as_xyz
  1  'x, y, z'
loop_
 _atom_site_type_symbol
 _atom_site_label
 _atom_site_symmetry_multiplicity
 _atom_site_fract_x
 _atom_site_fract_y
 _atom_site_fract_z
 _atom_site_occupancy
  C  C0  1  0.176967  0.000000  0.646065  1
  C  C1  1  0.823033  -0.000000  0.353935  1
  C  C2  1  0.823033  0.353935  -0.000000  1
  C  C3  1  0.176967  0.646065  0.000000  1
  C  C4  1  0.051530  0.141963  0.754978  1
  C  C5  1  0.948470  0.858037  0.245022  1
  C  C6  1  0.948470  0.245022  0.858037  1
  C  C7  1  0.051530  0.754978  0.141963  1
  C  C8  1  0.806508  0.245022  0.141963  1
  C  C9  1  0.193492  0.754978  0.858037  1
  C  C10  1  0.193492  0.858037  0.754978  1
  C  C11  1  0.806508  0.141963  0.245022  1
  C  C12  1  0.050764  0.000000  0.542660  1
  C  C13  1  0.593424  0.000000  0.457340  1
  C  C14  1  0.593424  0.457340  0.000000  1
  C  C15  1  0.050764  0.542660  0.000000  1
  C  C16  1  0.949236  1.000000  0.457340  1
  C  C17  1  0.406576  1.000000  0.542660  1
  C  C18  1  0.406576  0.542660  1.000000  1
  C  C19  1  0.949236  0.457340  1.000000  1
