# generated using pymatgen
data_Sc2C3
_symmetry_space_group_name_H-M   'P 1'
_cell_length_a   6.67109083
_cell_length_b   6.67109082
_cell_length_c   6.67109082
_cell_angle_alpha   109.47122063
_cell_angle_beta   109.47122061
_cell_angle_gamma   109.47122063
_symmetry_Int_Tables_number   1
_chemical_formula_structural   Sc2C3
_chemical_formula_sum   'Sc8 C12'
_cell_volume   228.54339242
_cell_formula_units_Z   4
loop_
 _symmetry_equiv_pos_site_id
 _symmetry_equiv_pos_as_xyz
  1  'x, y, z'
loop_
 _atom_site_type_symbol
 _atom_site_label
 _atom_site_symmetry_multiplicity
 _atom_site_fract_x
 _atom_site_fract_y
 _atom_site_fract_z
 _atom_site_occupancy
  C  C0  1  0.750000  0.788313  0.038313  1
  C  C1  1  0.750000  0.961687  0.211687  1
  C  C2  1  0.288313  0.250000  0.538313  1
  C  C3  1  0.538313  0.288313  0.250000  1
  C  C4  1  0.211687  0.750000  0.961687  1
  C  C5  1  0.961687  0.211687  0.750000  1
  C  C6  1  0.250000  0.711687  0.461687  1
  C  C7  1  0.711687  0.461687  0.250000  1
  C  C8  1  0.250000  0.538313  0.288313  1
  C  C9  1  0.461687  0.250000  0.711687  1
  C  C10  1  0.038313  0.750000  0.788313  1
  C  C11  1  0.788313  0.038313  0.750000  1
  Sc  Sc12  1  0.599781  0.599781  0.599781  1
  Sc  Sc13  1  0.400219  0.500000  0.000000  1
  Sc  Sc14  1  0.500000  0.000000  0.400219  1
  Sc  Sc15  1  0.000000  0.400219  0.500000  1
  Sc  Sc16  1  0.500000  0.000000  0.900219  1
  Sc  Sc17  1  0.000000  0.900219  0.500000  1
  Sc  Sc18  1  0.900219  0.500000  0.000000  1
  Sc  Sc19  1  0.099781  0.099781  0.099781  1
