# generated using pymatgen
data_C
_symmetry_space_group_name_H-M   'P 1'
_cell_length_a   5.13159458
_cell_length_b   3.50290530
_cell_length_c   7.15362061
_cell_angle_alpha   94.91478055
_cell_angle_beta   111.01860882
_cell_angle_gamma   76.18044449
_symmetry_Int_Tables_number   1
_chemical_formula_structural   C
_chemical_formula_sum   C8
_cell_volume   116.55933295
_cell_formula_units_Z   8
loop_
 _symmetry_equiv_pos_site_id
 _symmetry_equiv_pos_as_xyz
  1  'x, y, z'
loop_
 _atom_site_type_symbol
 _atom_site_label
 _atom_site_symmetry_multiplicity
 _atom_site_fract_x
 _atom_site_fract_y
 _atom_site_fract_z
 _atom_site_occupancy
  C  C0  1  0.980401  0.177354  -0.000000  1
  C  C1  1  0.480401  0.177354  -0.000000  1
  C  C2  1  0.980401  0.177354  0.500000  1
  C  C3  1  0.480401  0.177354  0.500000  1
  C  C4  1  0.729599  0.177646  -0.000000  1
  C  C5  1  0.229599  0.177646  0.000000  1
  C  C6  1  0.729599  0.177646  0.500000  1
  C  C7  1  0.229599  0.177646  0.500000  1
