# generated using pymatgen
data_C
_symmetry_space_group_name_H-M   'P 1'
_cell_length_a   9.11809583
_cell_length_b   9.63450633
_cell_length_c   13.32243740
_cell_angle_alpha   90.00000000
_cell_angle_beta   90.00000000
_cell_angle_gamma   90.00000000
_symmetry_Int_Tables_number   1
_chemical_formula_structural   C
_chemical_formula_sum   C120
_cell_volume   1170.35417010
_cell_formula_units_Z   120
loop_
 _symmetry_equiv_pos_site_id
 _symmetry_equiv_pos_as_xyz
  1  'x, y, z'
loop_
 _atom_site_type_symbol
 _atom_site_label
 _atom_site_symmetry_multiplicity
 _atom_site_fract_x
 _atom_site_fract_y
 _atom_site_fract_z
 _atom_site_occupancy
  C  C0  1  0.500000  0.267658  0.271796  1
  C  C1  1  0.500000  0.732342  0.728204  1
  C  C2  1  0.000000  0.232342  0.771796  1
  C  C3  1  0.000000  0.767658  0.228204  1
  C  C4  1  0.412357  0.759071  0.302712  1
  C  C5  1  0.412357  0.240929  0.697288  1
  C  C6  1  0.087643  0.740929  0.802712  1
  C  C7  1  0.087643  0.259071  0.197288  1
  C  C8  1  0.587643  0.240929  0.697288  1
  C  C9  1  0.587643  0.759071  0.302712  1
  C  C10  1  0.912357  0.259071  0.197288  1
  C  C11  1  0.912357  0.740929  0.802712  1
  C  C12  1  0.077412  0.392295  0.429945  1
  C  C13  1  0.077412  0.607705  0.570055  1
  C  C14  1  0.422588  0.107705  0.929945  1
  C  C15  1  0.422588  0.892295  0.070055  1
  C  C16  1  0.922588  0.607705  0.570055  1
  C  C17  1  0.922588  0.392295  0.429945  1
  C  C18  1  0.577412  0.892295  0.070055  1
  C  C19  1  0.577412  0.107705  0.929945  1
  C  C20  1  0.413976  0.489393  0.252007  1
  C  C21  1  0.413976  0.510607  0.747993  1
  C  C22  1  0.086024  0.010607  0.752007  1
  C  C23  1  0.086024  0.989393  0.247993  1
  C  C24  1  0.586024  0.510607  0.747993  1
  C  C25  1  0.586024  0.489393  0.252007  1
  C  C26  1  0.913976  0.989393  0.247993  1
  C  C27  1  0.913976  0.010607  0.752007  1
  C  C28  1  0.224688  0.602534  0.366641  1
  C  C29  1  0.224688  0.397466  0.633359  1
  C  C30  1  0.275312  0.897466  0.866641  1
  C  C31  1  0.275312  0.102534  0.133359  1
  C  C32  1  0.775312  0.397466  0.633359  1
  C  C33  1  0.775312  0.602534  0.366641  1
  C  C34  1  0.724688  0.102534  0.133359  1
  C  C35  1  0.724688  0.897466  0.866641  1
  C  C36  1  0.281173  0.760612  0.222119  1
  C  C37  1  0.281173  0.239388  0.777881  1
  C  C38  1  0.218827  0.739388  0.722119  1
  C  C39  1  0.218827  0.260612  0.277881  1
  C  C40  1  0.718827  0.239388  0.777881  1
  C  C41  1  0.718827  0.760612  0.222119  1
  C  C42  1  0.781173  0.260612  0.277881  1
  C  C43  1  0.781173  0.739388  0.722119  1
  C  C44  1  0.365650  0.348228  0.255963  1
  C  C45  1  0.365650  0.651772  0.744037  1
  C  C46  1  0.134350  0.151772  0.755963  1
  C  C47  1  0.134350  0.848228  0.244037  1
  C  C48  1  0.634350  0.651772  0.744037  1
  C  C49  1  0.634350  0.348228  0.255963  1
  C  C50  1  0.865650  0.848228  0.244037  1
  C  C51  1  0.865650  0.151772  0.755963  1
  C  C52  1  0.329557  0.620965  0.283501  1
  C  C53  1  0.329557  0.379035  0.716499  1
  C  C54  1  0.170443  0.879035  0.783501  1
  C  C55  1  0.170443  0.120965  0.216499  1
  C  C56  1  0.670443  0.379035  0.716499  1
  C  C57  1  0.670443  0.620965  0.283501  1
  C  C58  1  0.829557  0.120965  0.216499  1
  C  C59  1  0.829557  0.879035  0.783501  1
  C  C60  1  0.149761  0.491370  0.385322  1
  C  C61  1  0.149761  0.508630  0.614678  1
  C  C62  1  0.350239  0.008630  0.885322  1
  C  C63  1  0.350239  0.991370  0.114678  1
  C  C64  1  0.850239  0.508630  0.614678  1
  C  C65  1  0.850239  0.491370  0.385322  1
  C  C66  1  0.649761  0.991370  0.114678  1
  C  C67  1  0.649761  0.008630  0.885322  1
  C  C68  1  0.500000  0.833747  0.653448  1
  C  C69  1  0.500000  0.166253  0.346552  1
  C  C70  1  0.000000  0.666253  0.153448  1
  C  C71  1  0.000000  0.333747  0.846552  1
  C  C72  1  0.420768  0.861518  0.488122  1
  C  C73  1  0.420768  0.138482  0.511878  1
  C  C74  1  0.079232  0.638482  0.988122  1
  C  C75  1  0.079232  0.361518  0.011878  1
  C  C76  1  0.579232  0.138482  0.511878  1
  C  C77  1  0.579232  0.861518  0.488122  1
  C  C78  1  0.920768  0.361518  0.011878  1
  C  C79  1  0.920768  0.638482  0.988122  1
  C  C80  1  0.230220  0.719627  0.434901  1
  C  C81  1  0.230220  0.280373  0.565099  1
  C  C82  1  0.269780  0.780373  0.934901  1
  C  C83  1  0.269780  0.219627  0.065099  1
  C  C84  1  0.769780  0.280373  0.565099  1
  C  C85  1  0.769780  0.719627  0.434901  1
  C  C86  1  0.730220  0.219627  0.065099  1
  C  C87  1  0.730220  0.780373  0.934901  1
  C  C88  1  0.238308  0.783884  0.612484  1
  C  C89  1  0.238308  0.216116  0.387516  1
  C  C90  1  0.261692  0.716116  0.112484  1
  C  C91  1  0.261692  0.283884  0.887516  1
  C  C92  1  0.761692  0.216116  0.387516  1
  C  C93  1  0.761692  0.783884  0.612484  1
  C  C94  1  0.738308  0.283884  0.887516  1
  C  C95  1  0.738308  0.716116  0.112484  1
  C  C96  1  0.371416  0.849384  0.589412  1
  C  C97  1  0.371416  0.150616  0.410588  1
  C  C98  1  0.128584  0.650616  0.089412  1
  C  C99  1  0.128584  0.349384  0.910588  1
  C  C100  1  0.628584  0.150616  0.410588  1
  C  C101  1  0.628584  0.849384  0.589412  1
  C  C102  1  0.871416  0.349384  0.910588  1
  C  C103  1  0.871416  0.650616  0.089412  1
  C  C104  1  0.348814  0.802768  0.406359  1
  C  C105  1  0.348814  0.197232  0.593641  1
  C  C106  1  0.151186  0.697232  0.906359  1
  C  C107  1  0.151186  0.302768  0.093641  1
  C  C108  1  0.651186  0.197232  0.593641  1
  C  C109  1  0.651186  0.802768  0.406359  1
  C  C110  1  0.848814  0.302768  0.093641  1
  C  C111  1  0.848814  0.697232  0.906359  1
  C  C112  1  0.168962  0.719826  0.531859  1
  C  C113  1  0.168962  0.280174  0.468141  1
  C  C114  1  0.331038  0.780174  0.031859  1
  C  C115  1  0.331038  0.219826  0.968141  1
  C  C116  1  0.831038  0.280174  0.468141  1
  C  C117  1  0.831038  0.719826  0.531859  1
  C  C118  1  0.668962  0.219826  0.968141  1
  C  C119  1  0.668962  0.780174  0.031859  1
