# generated using pymatgen
data_Sc15C19
_symmetry_space_group_name_H-M   'P 1'
_cell_length_a   7.54016977
_cell_length_b   7.54016977
_cell_length_c   14.66641715
_cell_angle_alpha   90.00000000
_cell_angle_beta   90.00000000
_cell_angle_gamma   90.00000000
_symmetry_Int_Tables_number   1
_chemical_formula_structural   Sc15C19
_chemical_formula_sum   'Sc30 C38'
_cell_volume   833.84682963
_cell_formula_units_Z   2
loop_
 _symmetry_equiv_pos_site_id
 _symmetry_equiv_pos_as_xyz
  1  'x, y, z'
loop_
 _atom_site_type_symbol
 _atom_site_label
 _atom_site_symmetry_multiplicity
 _atom_site_fract_x
 _atom_site_fract_y
 _atom_site_fract_z
 _atom_site_occupancy
  C  C0  1  0.500000  0.500000  0.000000  1
  C  C1  1  0.000000  0.000000  0.500000  1
  C  C2  1  0.500000  0.500000  0.660965  1
  C  C3  1  0.500000  0.500000  0.339035  1
  C  C4  1  0.000000  0.000000  0.839035  1
  C  C5  1  0.000000  0.000000  0.160965  1
  C  C6  1  0.905152  0.303403  0.666626  1
  C  C7  1  0.094848  0.696597  0.666626  1
  C  C8  1  0.196597  0.594848  0.166626  1
  C  C9  1  0.696597  0.905152  0.333374  1
  C  C10  1  0.303403  0.094848  0.333374  1
  C  C11  1  0.594848  0.803403  0.833374  1
  C  C12  1  0.405152  0.196597  0.833374  1
  C  C13  1  0.803403  0.405152  0.166626  1
  C  C14  1  0.651214  0.848864  0.749935  1
  C  C15  1  0.348786  0.151136  0.749935  1
  C  C16  1  0.603647  0.197956  0.499975  1
  C  C17  1  0.651136  0.848786  0.249935  1
  C  C18  1  0.848864  0.348786  0.250065  1
  C  C19  1  0.848786  0.348864  0.750065  1
  C  C20  1  0.151214  0.651136  0.750065  1
  C  C21  1  0.348864  0.151214  0.249935  1
  C  C22  1  0.696569  0.905141  0.666466  1
  C  C23  1  0.303431  0.094859  0.666466  1
  C  C24  1  0.594859  0.803431  0.166466  1
  C  C25  1  0.094859  0.696569  0.333534  1
  C  C26  1  0.905141  0.303431  0.333534  1
  C  C27  1  0.803431  0.405141  0.833534  1
  C  C28  1  0.196569  0.594859  0.833534  1
  C  C29  1  0.405141  0.196569  0.166466  1
  C  C30  1  0.697956  0.103647  0.999975  1
  C  C31  1  0.103647  0.302044  0.000025  1
  C  C32  1  0.896353  0.697956  0.000025  1
  C  C33  1  0.197956  0.396353  0.500025  1
  C  C34  1  0.802044  0.603647  0.500025  1
  C  C35  1  0.302044  0.896353  0.999975  1
  C  C36  1  0.396353  0.802044  0.499975  1
  C  C37  1  0.151136  0.651214  0.250065  1
  Sc  Sc38  1  0.500000  0.500000  0.500000  1
  Sc  Sc39  1  0.000000  0.000000  0.000000  1
  Sc  Sc40  1  0.000000  0.000000  0.333232  1
  Sc  Sc41  1  0.000000  0.000000  0.666768  1
  Sc  Sc42  1  0.500000  0.500000  0.166768  1
  Sc  Sc43  1  0.500000  0.500000  0.833232  1
  Sc  Sc44  1  0.598641  0.215949  0.646571  1
  Sc  Sc45  1  0.401359  0.784051  0.646571  1
  Sc  Sc46  1  0.284051  0.901359  0.146571  1
  Sc  Sc47  1  0.784051  0.598641  0.353429  1
  Sc  Sc48  1  0.215949  0.401359  0.353429  1
  Sc  Sc49  1  0.901359  0.715949  0.853429  1
  Sc  Sc50  1  0.098641  0.284051  0.853429  1
  Sc  Sc51  1  0.715949  0.098641  0.146571  1
  Sc  Sc52  1  0.784028  0.598659  0.646610  1
  Sc  Sc53  1  0.215972  0.401341  0.646610  1
  Sc  Sc54  1  0.901341  0.715972  0.146610  1
  Sc  Sc55  1  0.401341  0.784028  0.353390  1
  Sc  Sc56  1  0.598659  0.215972  0.353390  1
  Sc  Sc57  1  0.715972  0.098659  0.853390  1
  Sc  Sc58  1  0.284028  0.901341  0.853390  1
  Sc  Sc59  1  0.098659  0.284028  0.146610  1
  Sc  Sc60  1  0.703632  0.906519  0.499980  1
  Sc  Sc61  1  0.296368  0.093481  0.499980  1
  Sc  Sc62  1  0.593481  0.796368  0.999980  1
  Sc  Sc63  1  0.093481  0.703632  0.500020  1
  Sc  Sc64  1  0.906519  0.296368  0.500020  1
  Sc  Sc65  1  0.796368  0.406519  0.000020  1
  Sc  Sc66  1  0.203632  0.593481  0.000020  1
  Sc  Sc67  1  0.406519  0.203632  0.999980  1
