# generated using pymatgen
data_AlC
_symmetry_space_group_name_H-M   'P 1'
_cell_length_a   8.06643022
_cell_length_b   8.10666215
_cell_length_c   29.96977127
_cell_angle_alpha   89.99638765
_cell_angle_beta   90.02785854
_cell_angle_gamma   90.36373617
_symmetry_Int_Tables_number   1
_chemical_formula_structural   AlC
_chemical_formula_sum   'Al30 C30'
_cell_volume   1959.73829992
_cell_formula_units_Z   30
loop_
 _symmetry_equiv_pos_site_id
 _symmetry_equiv_pos_as_xyz
  1  'x, y, z'
loop_
 _atom_site_type_symbol
 _atom_site_label
 _atom_site_symmetry_multiplicity
 _atom_site_fract_x
 _atom_site_fract_y
 _atom_site_fract_z
 _atom_site_occupancy
  Al  Al0  1  0.999961  -0.000018  0.302548  1
  Al  Al1  1  0.330868  0.997367  0.304088  1
  Al  Al2  1  0.669052  0.002724  0.304066  1
  Al  Al3  1  0.999974  0.500009  0.303036  1
  Al  Al4  1  0.334138  0.497746  0.303513  1
  Al  Al5  1  0.665876  0.502233  0.303551  1
  Al  Al6  1  0.167245  0.245520  0.346916  1
  Al  Al7  1  0.500407  0.248293  0.347577  1
  Al  Al8  1  0.836647  0.247983  0.351251  1
  Al  Al9  1  0.163433  0.751990  0.351254  1
  Al  Al10  1  0.499648  0.751716  0.347526  1
  Al  Al11  1  0.832777  0.754512  0.346961  1
  Al  Al12  1  0.000071  0.999976  0.399172  1
  Al  Al13  1  0.330721  0.998488  0.400662  1
  Al  Al14  1  0.669376  0.001480  0.400617  1
  Al  Al15  1  0.000074  0.500158  0.396921  1
  Al  Al16  1  0.331818  0.500414  0.394648  1
  Al  Al17  1  0.668386  0.499470  0.394683  1
  Al  Al18  1  0.157418  0.265470  0.441647  1
  Al  Al19  1  0.502757  0.258618  0.441759  1
  Al  Al20  1  0.826202  0.236156  0.458563  1
  Al  Al21  1  0.174378  0.764818  0.458821  1
  Al  Al22  1  0.497518  0.741058  0.441647  1
  Al  Al23  1  0.842875  0.734746  0.441770  1
  Al  Al24  1  0.999763  0.000362  0.499622  1
  Al  Al25  1  0.324191  0.075332  0.500037  1
  Al  Al26  1  0.674931  0.926481  0.499733  1
  Al  Al27  1  0.000266  0.500449  0.507623  1
  Al  Al28  1  0.332608  0.500949  0.491758  1
  Al  Al29  1  0.667862  0.499182  0.491790  1
  C  C30  1  0.468816  0.088329  0.556024  1
  C  C31  1  0.068485  0.299948  0.556930  1
  C  C32  1  0.671437  0.487004  0.560648  1
  C  C33  1  0.272379  0.681908  0.560404  1
  C  C34  1  0.872880  0.879480  0.554565  1
  C  C35  1  0.127818  0.121714  0.554563  1
  C  C36  1  0.728334  0.319219  0.560450  1
  C  C37  1  0.329304  0.514108  0.560617  1
  C  C38  1  0.932217  0.701256  0.556910  1
  C  C39  1  0.531992  0.912950  0.555983  1
  C  C40  1  0.000428  0.000591  0.581576  1
  C  C41  1  0.599266  0.199906  0.581500  1
  C  C42  1  0.199526  0.400536  0.585177  1
  C  C43  1  0.801312  0.600640  0.585156  1
  C  C44  1  0.401577  0.801264  0.581447  1
  C  C45  1  0.298309  0.101805  0.582923  1
  C  C46  1  0.899335  0.301264  0.583899  1
  C  C47  1  0.500387  0.500570  0.585185  1
  C  C48  1  0.101472  0.699845  0.583867  1
  C  C49  1  0.702558  0.899386  0.582865  1
  C  C50  1  0.879897  0.125932  0.601714  1
  C  C51  1  0.478039  0.324479  0.603638  1
  C  C52  1  0.079739  0.526923  0.605925  1
  C  C53  1  0.681686  0.729302  0.603861  1
  C  C54  1  0.279176  0.928522  0.601494  1
  C  C55  1  0.721766  0.072574  0.601514  1
  C  C56  1  0.319132  0.271849  0.603898  1
  C  C57  1  0.921164  0.474222  0.605935  1
  C  C58  1  0.522905  0.676677  0.603607  1
  C  C59  1  0.121070  0.875168  0.601685  1
