# generated using pymatgen
data_C
_symmetry_space_group_name_H-M   'P 1'
_cell_length_a   7.57115187
_cell_length_b   9.19047054
_cell_length_c   23.64099744
_cell_angle_alpha   80.25722049
_cell_angle_beta   95.89598623
_cell_angle_gamma   75.02447478
_symmetry_Int_Tables_number   1
_chemical_formula_structural   C
_chemical_formula_sum   C80
_cell_volume   1547.56944304
_cell_formula_units_Z   80
loop_
 _symmetry_equiv_pos_site_id
 _symmetry_equiv_pos_as_xyz
  1  'x, y, z'
loop_
 _atom_site_type_symbol
 _atom_site_label
 _atom_site_symmetry_multiplicity
 _atom_site_fract_x
 _atom_site_fract_y
 _atom_site_fract_z
 _atom_site_occupancy
  C  C0  1  0.269460  0.511556  0.995078  1
  C  C1  1  0.435851  0.516955  0.002242  1
  C  C2  1  0.540231  0.551599  0.963024  1
  C  C3  1  0.580329  0.567822  0.912481  1
  C  C4  1  0.530098  0.561056  0.854344  1
  C  C5  1  0.619371  0.543440  0.806029  1
  C  C6  1  0.643645  0.518325  0.757147  1
  C  C7  1  0.586998  0.473333  0.707666  1
  C  C8  1  0.533652  0.482052  0.648699  1
  C  C9  1  0.412573  0.453169  0.689128  1
  C  C10  1  0.221330  0.511835  0.682538  1
  C  C11  1  0.148531  0.519194  0.734675  1
  C  C12  1  0.127043  0.517290  0.785978  1
  C  C13  1  0.181485  0.523546  0.844623  1
  C  C14  1  0.150544  0.498996  0.952137  1
  C  C15  1  0.114842  0.509528  0.898237  1
  C  C16  1  0.353316  0.544762  0.849238  1
  C  C17  1  0.262817  0.597381  0.584128  1
  C  C18  1  0.436505  0.554879  0.594165  1
  C  C19  1  0.130720  0.604609  0.623355  1
  C  C20  1  0.714971  0.119431  0.933339  1
  C  C21  1  0.555402  0.099391  0.931795  1
  C  C22  1  0.459028  0.057572  0.890081  1
  C  C23  1  0.450143  0.011570  0.842997  1
  C  C24  1  0.554960  0.993687  0.799660  1
  C  C25  1  0.599791  0.993205  0.744025  1
  C  C26  1  0.557066  1.000229  0.684501  1
  C  C27  1  0.637315  0.000132  0.641069  1
  C  C28  1  0.758472  0.000925  0.601318  1
  C  C29  1  0.884644  0.093359  0.608513  1
  C  C30  1  0.045814  0.066603  0.652636  1
  C  C31  1  0.056227  0.061789  0.711208  1
  C  C32  1  0.007349  0.058128  0.759637  1
  C  C33  1  0.899003  0.044687  0.804567  1
  C  C34  1  0.860735  0.102103  0.905718  1
  C  C35  1  0.920561  0.079538  0.859548  1
  C  C36  1  0.733306  0.007510  0.787004  1
  C  C37  1  0.913440  0.861955  0.601549  1
  C  C38  1  0.961399  0.711989  0.613306  1
  C  C39  1  0.048694  0.974249  0.611156  1
  C  C40  1  0.397606  0.014677  0.445160  1
  C  C41  1  0.239271  0.990286  0.442647  1
  C  C42  1  0.136747  0.979338  0.395518  1
  C  C43  1  0.104946  0.958097  0.344478  1
  C  C44  1  0.160882  0.958711  0.289745  1
  C  C45  1  0.086148  0.957762  0.233015  1
  C  C46  1  0.080545  0.970871  0.179975  1
  C  C47  1  0.141447  0.020253  0.128840  1
  C  C48  1  0.220667  0.006472  0.077346  1
  C  C49  1  0.303352  0.064029  0.122392  1
  C  C50  1  0.499253  0.029586  0.139899  1
  C  C51  1  0.554229  0.040757  0.197490  1
  C  C52  1  0.564193  0.031631  0.250510  1
  C  C53  1  0.505853  0.002375  0.305429  1
  C  C54  1  0.534790  0.006162  0.414327  1
  C  C55  1  0.565121  0.008214  0.362902  1
  C  C56  1  0.336905  0.973934  0.298839  1
  C  C57  1  0.476916  0.927114  0.060338  1
  C  C58  1  0.311061  0.922730  0.037673  1
  C  C59  1  0.593689  0.951172  0.100151  1
  C  C60  1  0.734474  0.510269  0.120811  1
  C  C61  1  0.863060  0.569456  0.109202  1
  C  C62  1  0.989518  0.603466  0.143994  1
  C  C63  1  0.067584  0.597420  0.194254  1
  C  C64  1  0.036354  0.555587  0.249759  1
  C  C65  1  0.037194  0.547490  0.309375  1
  C  C66  1  0.081311  0.577547  0.363628  1
  C  C67  1  0.086380  0.552695  0.416891  1
  C  C68  1  0.027019  0.493108  0.468235  1
  C  C69  1  0.850920  0.468811  0.454021  1
  C  C70  1  0.744438  0.384272  0.435748  1
  C  C71  1  0.684289  0.361664  0.381446  1
  C  C72  1  0.699537  0.385808  0.329462  1
  C  C73  1  0.759728  0.423510  0.275827  1
  C  C74  1  0.682385  0.416189  0.220472  1
  C  C75  1  0.674375  0.443673  0.166576  1
  C  C76  1  0.912704  0.486558  0.279354  1
  C  C77  1  0.965439  0.335564  0.527378  1
  C  C78  1  0.114994  0.389752  0.522866  1
  C  C79  1  0.814114  0.326512  0.496784  1
