# generated using pymatgen
data_C
_symmetry_space_group_name_H-M   'P 1'
_cell_length_a   9.18666902
_cell_length_b   10.20196686
_cell_length_c   14.64883924
_cell_angle_alpha   90.00000000
_cell_angle_beta   90.00000000
_cell_angle_gamma   90.00000000
_symmetry_Int_Tables_number   1
_chemical_formula_structural   C
_chemical_formula_sum   C120
_cell_volume   1372.91987207
_cell_formula_units_Z   120
loop_
 _symmetry_equiv_pos_site_id
 _symmetry_equiv_pos_as_xyz
  1  'x, y, z'
loop_
 _atom_site_type_symbol
 _atom_site_label
 _atom_site_symmetry_multiplicity
 _atom_site_fract_x
 _atom_site_fract_y
 _atom_site_fract_z
 _atom_site_occupancy
  C  C0  1  0.421129  0.162185  0.467487  1
  C  C1  1  0.421129  0.837815  0.532513  1
  C  C2  1  0.587740  0.939901  0.964512  1
  C  C3  1  0.587740  0.060099  0.035488  1
  C  C4  1  0.912260  0.439901  0.535488  1
  C  C5  1  0.912260  0.560099  0.464512  1
  C  C6  1  0.412260  0.060099  0.035488  1
  C  C7  1  0.412260  0.939901  0.964512  1
  C  C8  1  0.087740  0.560099  0.464512  1
  C  C9  1  0.087740  0.439901  0.535488  1
  C  C10  1  0.667710  0.966229  0.874788  1
  C  C11  1  0.667710  0.033771  0.125213  1
  C  C12  1  0.832290  0.466229  0.625212  1
  C  C13  1  0.832290  0.533771  0.374787  1
  C  C14  1  0.332290  0.033771  0.125213  1
  C  C15  1  0.332290  0.966229  0.874788  1
  C  C16  1  0.167710  0.533771  0.374787  1
  C  C17  1  0.167710  0.466229  0.625212  1
  C  C18  1  0.667469  0.816751  0.997059  1
  C  C19  1  0.667469  0.183249  0.002941  1
  C  C20  1  0.832531  0.316751  0.502941  1
  C  C21  1  0.832531  0.683249  0.497059  1
  C  C22  1  0.332531  0.183249  0.002941  1
  C  C23  1  0.332531  0.816751  0.997059  1
  C  C24  1  0.167469  0.683249  0.497059  1
  C  C25  1  0.167469  0.316751  0.502941  1
  C  C26  1  0.923763  0.218318  0.821094  1
  C  C27  1  0.923763  0.781682  0.178906  1
  C  C28  1  0.576237  0.718318  0.678906  1
  C  C29  1  0.576237  0.281682  0.321094  1
  C  C30  1  0.076237  0.781682  0.178906  1
  C  C31  1  0.076237  0.218318  0.821094  1
  C  C32  1  0.423763  0.281682  0.321094  1
  C  C33  1  0.423763  0.718318  0.678906  1
  C  C34  1  -0.000000  0.783383  0.809367  1
  C  C35  1  -0.000000  0.216617  0.190633  1
  C  C36  1  0.500000  0.283383  0.690633  1
  C  C37  1  0.500000  0.716617  0.309367  1
  C  C38  1  -0.000000  0.694229  0.881886  1
  C  C39  1  -0.000000  0.305771  0.118114  1
  C  C40  1  0.500000  0.194229  0.618114  1
  C  C41  1  0.500000  0.805771  0.381886  1
  C  C42  1  0.872854  0.863495  0.791602  1
  C  C43  1  0.872854  0.136505  0.208398  1
  C  C44  1  0.627146  0.363495  0.708398  1
  C  C45  1  0.627146  0.636505  0.291602  1
  C  C46  1  0.127146  0.136505  0.208398  1
  C  C47  1  0.127146  0.863495  0.791602  1
  C  C48  1  0.372854  0.636505  0.291602  1
  C  C49  1  0.372854  0.363495  0.708398  1
  C  C50  1  0.872610  0.681907  0.939715  1
  C  C51  1  0.872610  0.318093  0.060285  1
  C  C52  1  0.627390  0.181907  0.560285  1
  C  C53  1  0.627390  0.818093  0.439715  1
  C  C54  1  0.127390  0.318093  0.060285  1
  C  C55  1  0.127390  0.681907  0.939715  1
  C  C56  1  0.372610  0.818093  0.439715  1
  C  C57  1  0.372610  0.181907  0.560285  1
  C  C58  1  0.844840  0.102443  0.792038  1
  C  C59  1  0.844840  0.897557  0.207962  1
  C  C60  1  0.655160  0.602443  0.707962  1
  C  C61  1  0.655160  0.397557  0.292038  1
  C  C62  1  0.155160  0.897557  0.207962  1
  C  C63  1  0.155160  0.102443  0.792038  1
  C  C64  1  0.344840  0.397557  0.292038  1
  C  C65  1  0.344840  0.602443  0.707962  1
  C  C66  1  0.844813  0.721736  0.104063  1
  C  C67  1  0.844813  0.278264  0.895937  1
  C  C68  1  0.655187  0.221736  0.395937  1
  C  C69  1  0.655187  0.778264  0.604063  1
  C  C70  1  0.155187  0.278264  0.895937  1
  C  C71  1  0.155187  0.721736  0.104063  1
  C  C72  1  0.344813  0.778264  0.604063  1
  C  C73  1  0.344813  0.221736  0.395937  1
  C  C74  1  0.716829  0.089309  0.848868  1
  C  C75  1  0.716829  0.910691  0.151132  1
  C  C76  1  0.783171  0.589309  0.651132  1
  C  C77  1  0.783171  0.410691  0.348868  1
  C  C78  1  0.283171  0.910691  0.151132  1
  C  C79  1  0.283171  0.089309  0.848868  1
  C  C80  1  0.216829  0.410691  0.348868  1
  C  C81  1  0.216829  0.589309  0.651132  1
  C  C82  1  0.716703  0.800048  0.085850  1
  C  C83  1  0.716703  0.199952  0.914150  1
  C  C84  1  0.783297  0.300048  0.414150  1
  C  C85  1  0.783297  0.699952  0.585850  1
  C  C86  1  0.283297  0.199952  0.914150  1
  C  C87  1  0.283297  0.800048  0.085850  1
  C  C88  1  0.216703  0.699952  0.585850  1
  C  C89  1  0.216703  0.300048  0.414150  1
  C  C90  1  0.750167  0.853001  0.848119  1
  C  C91  1  0.750167  0.146999  0.151881  1
  C  C92  1  0.749833  0.353001  0.651881  1
  C  C93  1  0.749833  0.646999  0.348119  1
  C  C94  1  0.249833  0.146999  0.151881  1
  C  C95  1  0.249833  0.853001  0.848119  1
  C  C96  1  0.250167  0.646999  0.348119  1
  C  C97  1  0.250167  0.353001  0.651881  1
  C  C98  1  0.749888  0.760422  0.923474  1
  C  C99  1  0.749888  0.239578  0.076526  1
  C  C100  1  0.750112  0.260422  0.576526  1
  C  C101  1  0.750112  0.739578  0.423474  1
  C  C102  1  0.250112  0.239578  0.076526  1
  C  C103  1  0.250112  0.760422  0.923474  1
  C  C104  1  0.249888  0.739578  0.423474  1
  C  C105  1  0.249888  0.260422  0.576526  1
  C  C106  1  0.921080  0.991483  0.762534  1
  C  C107  1  0.921080  0.008517  0.237466  1
  C  C108  1  0.578920  0.491483  0.737466  1
  C  C109  1  0.578920  0.508517  0.262534  1
  C  C110  1  0.078920  0.008517  0.237466  1
  C  C111  1  0.078920  0.991483  0.762534  1
  C  C112  1  0.421080  0.508517  0.262534  1
  C  C113  1  0.421080  0.491483  0.737466  1
  C  C114  1  0.921129  0.662185  0.032513  1
  C  C115  1  0.921129  0.337815  0.967487  1
  C  C116  1  0.578871  0.162185  0.467487  1
  C  C117  1  0.578871  0.837815  0.532513  1
  C  C118  1  0.078871  0.337815  0.967487  1
  C  C119  1  0.078871  0.662185  0.032513  1
