# generated using pymatgen
data_C
_symmetry_space_group_name_H-M   'P 1'
_cell_length_a   4.27706599
_cell_length_b   4.93348223
_cell_length_c   8.14990255
_cell_angle_alpha   90.00000000
_cell_angle_beta   90.00000000
_cell_angle_gamma   90.00000000
_symmetry_Int_Tables_number   1
_chemical_formula_structural   C
_chemical_formula_sum   C16
_cell_volume   171.96970055
_cell_formula_units_Z   16
loop_
 _symmetry_equiv_pos_site_id
 _symmetry_equiv_pos_as_xyz
  1  'x, y, z'
loop_
 _atom_site_type_symbol
 _atom_site_label
 _atom_site_symmetry_multiplicity
 _atom_site_fract_x
 _atom_site_fract_y
 _atom_site_fract_z
 _atom_site_occupancy
  C  C0  1  0.166750  0.124972  0.234126  1
  C  C1  1  0.333250  0.124972  0.765874  1
  C  C2  1  0.833268  0.124987  0.234122  1
  C  C3  1  0.833268  0.375013  0.765878  1
  C  C4  1  0.333250  0.375028  0.234126  1
  C  C5  1  0.333268  0.875013  0.234122  1
  C  C6  1  0.166750  0.375028  0.765874  1
  C  C7  1  0.166732  0.624987  0.234122  1
  C  C8  1  0.833250  0.624972  0.234126  1
  C  C9  1  0.166732  0.875013  0.765878  1
  C  C10  1  0.666732  0.375013  0.234122  1
  C  C11  1  0.833250  0.875028  0.765874  1
  C  C12  1  0.333268  0.624987  0.765878  1
  C  C13  1  0.666750  0.875028  0.234126  1
  C  C14  1  0.666732  0.124987  0.765878  1
  C  C15  1  0.666750  0.624972  0.765874  1
