# generated using pymatgen
data_C
_symmetry_space_group_name_H-M   'P 1'
_cell_length_a   9.59662636
_cell_length_b   8.32137470
_cell_length_c   14.07642071
_cell_angle_alpha   90.00000000
_cell_angle_beta   90.00000000
_cell_angle_gamma   90.00000000
_symmetry_Int_Tables_number   1
_chemical_formula_structural   C
_chemical_formula_sum   C120
_cell_volume   1124.10247126
_cell_formula_units_Z   120
loop_
 _symmetry_equiv_pos_site_id
 _symmetry_equiv_pos_as_xyz
  1  'x, y, z'
loop_
 _atom_site_type_symbol
 _atom_site_label
 _atom_site_symmetry_multiplicity
 _atom_site_fract_x
 _atom_site_fract_y
 _atom_site_fract_z
 _atom_site_occupancy
  C  C0  1  0.283551  0.846576  0.854609  1
  C  C1  1  0.352280  0.182041  0.551111  1
  C  C2  1  0.834788  0.769723  0.789854  1
  C  C3  1  0.325136  0.812354  0.044493  1
  C  C4  1  0.120266  0.314515  0.879235  1
  C  C5  1  0.716449  0.846576  0.854609  1
  C  C6  1  0.674864  0.187646  0.955507  1
  C  C7  1  0.147720  0.682041  0.948889  1
  C  C8  1  0.927764  0.306752  0.137811  1
  C  C9  1  0.716449  0.153424  0.145391  1
  C  C10  1  0.647720  0.182041  0.551111  1
  C  C11  1  0.174864  0.312354  0.455507  1
  C  C12  1  0.647720  0.817959  0.448889  1
  C  C13  1  0.283551  0.153424  0.145391  1
  C  C14  1  0.875391  0.936895  0.251122  1
  C  C15  1  0.500000  0.215672  0.319558  1
  C  C16  1  0.573855  0.857066  0.530014  1
  C  C17  1  0.239528  0.774102  0.125263  1
  C  C18  1  0.224140  0.270696  0.548940  1
  C  C19  1  0.429604  0.922384  0.088105  1
  C  C20  1  0.120266  0.685485  0.120765  1
  C  C21  1  0.236807  0.627423  0.714907  1
  C  C22  1  0.000000  0.284328  0.819558  1
  C  C23  1  0.334788  0.730277  0.289854  1
  C  C24  1  0.879734  0.685485  0.120765  1
  C  C25  1  0.070396  0.422384  0.411895  1
  C  C26  1  0.260472  0.725898  0.625263  1
  C  C27  1  0.379734  0.814515  0.620765  1
  C  C28  1  0.825136  0.312354  0.455507  1
  C  C29  1  0.352280  0.817959  0.448889  1
  C  C30  1  0.427764  0.193248  0.637811  1
  C  C31  1  0.000000  0.838712  0.244833  1
  C  C32  1  0.573855  0.142934  0.469986  1
  C  C33  1  0.325136  0.187646  0.955507  1
  C  C34  1  0.260472  0.274102  0.374737  1
  C  C35  1  0.073855  0.357066  0.969986  1
  C  C36  1  0.852280  0.317959  0.051111  1
  C  C37  1  0.724140  0.770696  0.951060  1
  C  C38  1  0.334788  0.269723  0.710146  1
  C  C39  1  0.216449  0.346576  0.645391  1
  C  C40  1  0.570396  0.077616  0.911895  1
  C  C41  1  0.783551  0.346576  0.645391  1
  C  C42  1  0.000000  0.161288  0.755167  1
  C  C43  1  0.224140  0.729304  0.451060  1
  C  C44  1  0.165212  0.230277  0.210146  1
  C  C45  1  0.070396  0.577616  0.588105  1
  C  C46  1  0.124609  0.936895  0.251122  1
  C  C47  1  0.929604  0.577616  0.588105  1
  C  C48  1  0.572236  0.806752  0.362189  1
  C  C49  1  0.275860  0.229304  0.048940  1
  C  C50  1  0.825136  0.687646  0.544493  1
  C  C51  1  0.655823  0.006953  0.162995  1
  C  C52  1  0.763193  0.372577  0.285093  1
  C  C53  1  0.624609  0.563105  0.751122  1
  C  C54  1  0.834788  0.230277  0.210146  1
  C  C55  1  0.379734  0.185485  0.379235  1
  C  C56  1  0.155823  0.506953  0.337005  1
  C  C57  1  0.236807  0.372577  0.285093  1
  C  C58  1  0.724140  0.229304  0.048940  1
  C  C59  1  0.239528  0.225898  0.874737  1
  C  C60  1  0.078540  0.905021  0.747649  1
  C  C61  1  0.263193  0.872577  0.214907  1
  C  C62  1  0.426145  0.857066  0.530014  1
  C  C63  1  0.570396  0.922384  0.088105  1
  C  C64  1  0.165212  0.769723  0.789854  1
  C  C65  1  0.875391  0.063105  0.748878  1
  C  C66  1  0.375391  0.563105  0.751122  1
  C  C67  1  0.739528  0.725898  0.625263  1
  C  C68  1  0.147720  0.317959  0.051111  1
  C  C69  1  0.921460  0.094979  0.252351  1
  C  C70  1  0.929604  0.422384  0.411895  1
  C  C71  1  0.844177  0.493047  0.662995  1
  C  C72  1  0.000000  0.715672  0.180442  1
  C  C73  1  0.926145  0.642934  0.030014  1
  C  C74  1  0.429604  0.077616  0.911895  1
  C  C75  1  0.421460  0.594979  0.247649  1
  C  C76  1  0.620266  0.814515  0.620765  1
  C  C77  1  0.344177  0.006953  0.162995  1
  C  C78  1  0.620266  0.185485  0.379235  1
  C  C79  1  0.500000  0.338712  0.255167  1
  C  C80  1  0.927764  0.693248  0.862189  1
  C  C81  1  0.500000  0.784328  0.680442  1
  C  C82  1  0.736807  0.872577  0.214907  1
  C  C83  1  0.775860  0.729304  0.451060  1
  C  C84  1  0.760472  0.225898  0.874737  1
  C  C85  1  0.665212  0.730277  0.289854  1
  C  C86  1  0.155823  0.493047  0.662995  1
  C  C87  1  0.879734  0.314515  0.879235  1
  C  C88  1  0.578540  0.405021  0.752351  1
  C  C89  1  0.775860  0.270696  0.548940  1
  C  C90  1  0.500000  0.661288  0.744833  1
  C  C91  1  0.421460  0.405021  0.752351  1
  C  C92  1  0.072236  0.693248  0.862189  1
  C  C93  1  0.655823  0.993047  0.837005  1
  C  C94  1  0.174864  0.687646  0.544493  1
  C  C95  1  0.783551  0.653424  0.354609  1
  C  C96  1  0.124609  0.063105  0.748878  1
  C  C97  1  0.926145  0.357066  0.969986  1
  C  C98  1  0.344177  0.993047  0.837005  1
  C  C99  1  0.736807  0.127423  0.785093  1
  C  C100  1  0.216449  0.653424  0.354609  1
  C  C101  1  0.572236  0.193248  0.637811  1
  C  C102  1  0.739528  0.274102  0.374737  1
  C  C103  1  0.078540  0.094979  0.252351  1
  C  C104  1  0.921460  0.905021  0.747649  1
  C  C105  1  0.073855  0.642934  0.030014  1
  C  C106  1  0.844177  0.506953  0.337005  1
  C  C107  1  0.375391  0.436895  0.248878  1
  C  C108  1  0.624609  0.436895  0.248878  1
  C  C109  1  0.852280  0.682041  0.948889  1
  C  C110  1  0.674864  0.812354  0.044493  1
  C  C111  1  0.427764  0.806752  0.362189  1
  C  C112  1  0.263193  0.127423  0.785093  1
  C  C113  1  0.665212  0.269723  0.710146  1
  C  C114  1  0.578540  0.594979  0.247649  1
  C  C115  1  0.760472  0.774102  0.125263  1
  C  C116  1  0.072236  0.306752  0.137811  1
  C  C117  1  0.763193  0.627423  0.714907  1
  C  C118  1  0.275860  0.770696  0.951060  1
  C  C119  1  0.426145  0.142934  0.469986  1
