# generated using pymatgen
data_C
_symmetry_space_group_name_H-M   'P 1'
_cell_length_a   8.86066495
_cell_length_b   3.73812991
_cell_length_c   4.59979648
_cell_angle_alpha   147.66610903
_cell_angle_beta   164.39912809
_cell_angle_gamma   28.68577293
_symmetry_Int_Tables_number   1
_chemical_formula_structural   C
_chemical_formula_sum   C2
_cell_volume   19.66763683
_cell_formula_units_Z   2
loop_
 _symmetry_equiv_pos_site_id
 _symmetry_equiv_pos_as_xyz
  1  'x, y, z'
loop_
 _atom_site_type_symbol
 _atom_site_label
 _atom_site_symmetry_multiplicity
 _atom_site_fract_x
 _atom_site_fract_y
 _atom_site_fract_z
 _atom_site_occupancy
  C  C0  1  0.833817  0.332272  0.000000  1
  C  C1  1  0.166183  0.667728  1.000000  1
