# generated using pymatgen
data_C
_symmetry_space_group_name_H-M   'P 1'
_cell_length_a   9.79863428
_cell_length_b   9.79863444
_cell_length_c   9.79863464
_cell_angle_alpha   56.02849930
_cell_angle_beta   56.02849866
_cell_angle_gamma   56.02849941
_symmetry_Int_Tables_number   1
_chemical_formula_structural   C
_chemical_formula_sum   C60
_cell_volume   604.04508709
_cell_formula_units_Z   60
loop_
 _symmetry_equiv_pos_site_id
 _symmetry_equiv_pos_as_xyz
  1  'x, y, z'
loop_
 _atom_site_type_symbol
 _atom_site_label
 _atom_site_symmetry_multiplicity
 _atom_site_fract_x
 _atom_site_fract_y
 _atom_site_fract_z
 _atom_site_occupancy
  C  C0  1  0.874754  0.027412  0.716891  1
  C  C1  1  0.249245  0.249245  0.572032  1
  C  C2  1  0.027412  0.716891  0.874754  1
  C  C3  1  0.471829  0.916965  0.645118  1
  C  C4  1  0.716891  0.027412  0.874754  1
  C  C5  1  0.528171  0.083035  0.354882  1
  C  C6  1  0.249245  0.572032  0.249245  1
  C  C7  1  0.916965  0.645118  0.471829  1
  C  C8  1  0.888942  0.631259  0.196324  1
  C  C9  1  0.572032  0.249245  0.249245  1
  C  C10  1  0.196324  0.888942  0.631259  1
  C  C11  1  0.791196  0.945185  0.455044  1
  C  C12  1  0.736983  0.736983  0.305958  1
  C  C13  1  0.305958  0.736983  0.736983  1
  C  C14  1  0.645118  0.471829  0.916965  1
  C  C15  1  0.083035  0.528171  0.354882  1
  C  C16  1  0.972588  0.283109  0.125246  1
  C  C17  1  0.544956  0.054815  0.208804  1
  C  C18  1  0.208804  0.054815  0.544956  1
  C  C19  1  0.972588  0.125246  0.283109  1
  C  C20  1  0.354882  0.083035  0.528171  1
  C  C21  1  0.945185  0.455044  0.791196  1
  C  C22  1  0.455044  0.945185  0.791196  1
  C  C23  1  0.736983  0.305958  0.736983  1
  C  C24  1  0.645118  0.916965  0.471829  1
  C  C25  1  0.125246  0.972588  0.283109  1
  C  C26  1  0.631259  0.196324  0.888942  1
  C  C27  1  0.283109  0.125246  0.972588  1
  C  C28  1  0.196324  0.631259  0.888942  1
  C  C29  1  0.694042  0.263017  0.263017  1
  C  C30  1  0.750755  0.427968  0.750755  1
  C  C31  1  0.027412  0.874754  0.716891  1
  C  C32  1  0.916965  0.471829  0.645118  1
  C  C33  1  0.528171  0.354882  0.083035  1
  C  C34  1  0.054815  0.208804  0.544956  1
  C  C35  1  0.427968  0.750755  0.750755  1
  C  C36  1  0.750755  0.750755  0.427968  1
  C  C37  1  0.455044  0.791196  0.945185  1
  C  C38  1  0.874754  0.716891  0.027412  1
  C  C39  1  0.263017  0.694042  0.263017  1
  C  C40  1  0.054815  0.544956  0.208804  1
  C  C41  1  0.945185  0.791196  0.455044  1
  C  C42  1  0.354882  0.528171  0.083035  1
  C  C43  1  0.263017  0.263017  0.694042  1
  C  C44  1  0.471829  0.645118  0.916965  1
  C  C45  1  0.803676  0.111058  0.368741  1
  C  C46  1  0.083035  0.354882  0.528171  1
  C  C47  1  0.888942  0.196324  0.631259  1
  C  C48  1  0.283109  0.972588  0.125246  1
  C  C49  1  0.208804  0.544956  0.054815  1
  C  C50  1  0.111058  0.803676  0.368741  1
  C  C51  1  0.631259  0.888942  0.196324  1
  C  C52  1  0.368741  0.111058  0.803676  1
  C  C53  1  0.125246  0.283109  0.972588  1
  C  C54  1  0.803676  0.368741  0.111058  1
  C  C55  1  0.791196  0.455044  0.945185  1
  C  C56  1  0.716891  0.874754  0.027412  1
  C  C57  1  0.544956  0.208804  0.054815  1
  C  C58  1  0.111058  0.368741  0.803676  1
  C  C59  1  0.368741  0.803676  0.111058  1
