# generated using pymatgen
data_C
_symmetry_space_group_name_H-M   'P 1'
_cell_length_a   10.06696340
_cell_length_b   10.06696279
_cell_length_c   17.99996303
_cell_angle_alpha   90.00000000
_cell_angle_beta   90.00000000
_cell_angle_gamma   119.72477493
_symmetry_Int_Tables_number   1
_chemical_formula_structural   C
_chemical_formula_sum   C140
_cell_volume   1584.15247484
_cell_formula_units_Z   140
loop_
 _symmetry_equiv_pos_site_id
 _symmetry_equiv_pos_as_xyz
  1  'x, y, z'
loop_
 _atom_site_type_symbol
 _atom_site_label
 _atom_site_symmetry_multiplicity
 _atom_site_fract_x
 _atom_site_fract_y
 _atom_site_fract_z
 _atom_site_occupancy
  C  C0  1  0.179078  0.371354  0.929720  1
  C  C1  1  0.515729  0.626542  0.317426  1
  C  C2  1  0.026765  0.480960  0.182930  1
  C  C3  1  0.955790  0.437489  0.750000  1
  C  C4  1  0.628646  0.820922  0.929720  1
  C  C5  1  0.122498  0.739809  0.614172  1
  C  C6  1  0.044966  0.280940  0.817276  1
  C  C7  1  0.436300  0.563700  0.513174  1
  C  C8  1  0.052916  0.358829  0.614226  1
  C  C9  1  0.877502  0.260191  0.114172  1
  C  C10  1  0.375734  0.767171  0.530501  1
  C  C11  1  0.515729  0.626542  0.182574  1
  C  C12  1  0.820922  0.628646  0.429720  1
  C  C13  1  0.498693  0.733315  0.527928  1
  C  C14  1  0.947084  0.641171  0.385774  1
  C  C15  1  0.016599  0.475851  0.614164  1
  C  C16  1  0.309137  0.403488  0.250000  1
  C  C17  1  0.690863  0.596512  0.750000  1
  C  C18  1  0.232829  0.624266  0.530501  1
  C  C19  1  0.947084  0.641171  0.114226  1
  C  C20  1  0.498693  0.733315  0.972072  1
  C  C21  1  0.626542  0.515729  0.817426  1
  C  C22  1  0.006542  0.685536  0.250000  1
  C  C23  1  0.833910  0.755301  0.182584  1
  C  C24  1  0.373458  0.484271  0.317426  1
  C  C25  1  0.513885  0.486115  0.561065  1
  C  C26  1  0.388513  0.892108  0.928646  1
  C  C27  1  0.699712  0.749480  0.613923  1
  C  C28  1  0.596512  0.690863  0.250000  1
  C  C29  1  0.973235  0.519040  0.817070  1
  C  C30  1  0.611487  0.107892  0.428646  1
  C  C31  1  0.973235  0.519040  0.682930  1
  C  C32  1  0.767171  0.375734  0.469499  1
  C  C33  1  0.501307  0.266685  0.027928  1
  C  C34  1  0.699712  0.749480  0.886077  1
  C  C35  1  0.388513  0.892108  0.571354  1
  C  C36  1  0.761401  0.757791  0.250000  1
  C  C37  1  0.877502  0.260191  0.385828  1
  C  C38  1  0.626542  0.515729  0.682574  1
  C  C39  1  0.360629  0.407552  0.113836  1
  C  C40  1  0.232829  0.624266  0.969499  1
  C  C41  1  0.486115  0.513885  0.061065  1
  C  C42  1  0.358829  0.052916  0.385774  1
  C  C43  1  0.086960  0.767791  0.750000  1
  C  C44  1  0.016599  0.475851  0.885836  1
  C  C45  1  0.833910  0.755301  0.317416  1
  C  C46  1  0.501307  0.266685  0.472072  1
  C  C47  1  0.592448  0.639371  0.386164  1
  C  C48  1  0.955034  0.719060  0.182724  1
  C  C49  1  0.407552  0.360629  0.613836  1
  C  C50  1  0.375734  0.767171  0.969499  1
  C  C51  1  0.232209  0.913040  0.750000  1
  C  C52  1  0.563700  0.436300  0.486826  1
  C  C53  1  0.407552  0.360629  0.886164  1
  C  C54  1  0.052916  0.358829  0.885774  1
  C  C55  1  0.682462  0.038255  0.317183  1
  C  C56  1  0.436300  0.563700  0.986826  1
  C  C57  1  0.563700  0.436300  0.013174  1
  C  C58  1  0.044966  0.280940  0.682724  1
  C  C59  1  0.767791  0.086960  0.250000  1
  C  C60  1  0.624266  0.232829  0.030501  1
  C  C61  1  0.122498  0.739809  0.885828  1
  C  C62  1  0.628646  0.820922  0.570280  1
  C  C63  1  0.280940  0.044966  0.182724  1
  C  C64  1  0.519040  0.973235  0.317070  1
  C  C65  1  0.682462  0.038255  0.182817  1
  C  C66  1  0.179078  0.371354  0.570280  1
  C  C67  1  0.371354  0.179078  0.429720  1
  C  C68  1  0.260191  0.877502  0.614172  1
  C  C69  1  0.639371  0.592448  0.886164  1
  C  C70  1  0.733315  0.498693  0.472072  1
  C  C71  1  0.484271  0.373458  0.682574  1
  C  C72  1  0.892108  0.388513  0.071354  1
  C  C73  1  0.685536  0.006542  0.750000  1
  C  C74  1  0.993458  0.314464  0.750000  1
  C  C75  1  0.038255  0.682462  0.817183  1
  C  C76  1  0.719060  0.955034  0.682724  1
  C  C77  1  0.983401  0.524149  0.114164  1
  C  C78  1  0.317538  0.961745  0.682817  1
  C  C79  1  0.524149  0.983401  0.614164  1
  C  C80  1  0.480960  0.026765  0.817070  1
  C  C81  1  0.250520  0.300288  0.886077  1
  C  C82  1  0.913040  0.232209  0.250000  1
  C  C83  1  0.300288  0.250520  0.386077  1
  C  C84  1  0.475851  0.016599  0.385836  1
  C  C85  1  0.437489  0.955790  0.250000  1
  C  C86  1  0.733315  0.498693  0.027928  1
  C  C87  1  0.892108  0.388513  0.428646  1
  C  C88  1  0.373458  0.484271  0.182574  1
  C  C89  1  0.107892  0.611487  0.928646  1
  C  C90  1  0.166090  0.244699  0.682584  1
  C  C91  1  0.371354  0.179078  0.070280  1
  C  C92  1  0.757791  0.761401  0.750000  1
  C  C93  1  0.641171  0.947084  0.614226  1
  C  C94  1  0.562511  0.044210  0.750000  1
  C  C95  1  0.280940  0.044966  0.317276  1
  C  C96  1  0.486115  0.513885  0.438935  1
  C  C97  1  0.266685  0.501307  0.527928  1
  C  C98  1  0.107892  0.611487  0.571354  1
  C  C99  1  0.961745  0.317538  0.182817  1
  C  C100  1  0.624266  0.232829  0.469499  1
  C  C101  1  0.513885  0.486115  0.938935  1
  C  C102  1  0.749480  0.699712  0.113923  1
  C  C103  1  0.767171  0.375734  0.030501  1
  C  C104  1  0.360629  0.407552  0.386164  1
  C  C105  1  0.739809  0.122498  0.114172  1
  C  C106  1  0.611487  0.107892  0.071354  1
  C  C107  1  0.749480  0.699712  0.386077  1
  C  C108  1  0.266685  0.501307  0.972072  1
  C  C109  1  0.519040  0.973235  0.182930  1
  C  C110  1  0.244699  0.166090  0.317416  1
  C  C111  1  0.044210  0.562511  0.250000  1
  C  C112  1  0.641171  0.947084  0.885774  1
  C  C113  1  0.238599  0.242209  0.750000  1
  C  C114  1  0.166090  0.244699  0.817416  1
  C  C115  1  0.244699  0.166090  0.182584  1
  C  C116  1  0.755301  0.833910  0.682584  1
  C  C117  1  0.475851  0.016599  0.114164  1
  C  C118  1  0.250520  0.300288  0.613923  1
  C  C119  1  0.755301  0.833910  0.817416  1
  C  C120  1  0.480960  0.026765  0.682930  1
  C  C121  1  0.524149  0.983401  0.885836  1
  C  C122  1  0.317538  0.961745  0.817183  1
  C  C123  1  0.983401  0.524149  0.385836  1
  C  C124  1  0.403488  0.309137  0.750000  1
  C  C125  1  0.300288  0.250520  0.113923  1
  C  C126  1  0.820922  0.628646  0.070280  1
  C  C127  1  0.719060  0.955034  0.817276  1
  C  C128  1  0.038255  0.682462  0.682817  1
  C  C129  1  0.242209  0.238599  0.250000  1
  C  C130  1  0.314464  0.993458  0.250000  1
  C  C131  1  0.955034  0.719060  0.317276  1
  C  C132  1  0.961745  0.317538  0.317183  1
  C  C133  1  0.358829  0.052916  0.114226  1
  C  C134  1  0.592448  0.639371  0.113836  1
  C  C135  1  0.026765  0.480960  0.317070  1
  C  C136  1  0.739809  0.122498  0.385828  1
  C  C137  1  0.484271  0.373458  0.817426  1
  C  C138  1  0.639371  0.592448  0.613836  1
  C  C139  1  0.260191  0.877502  0.885828  1
