# generated using pymatgen
data_C
_symmetry_space_group_name_H-M   'P 1'
_cell_length_a   9.91610911
_cell_length_b   9.91610909
_cell_length_c   9.91610951
_cell_angle_alpha   60.00000177
_cell_angle_beta   60.00000184
_cell_angle_gamma   60.00000298
_symmetry_Int_Tables_number   1
_chemical_formula_structural   C
_chemical_formula_sum   C60
_cell_volume   689.45977125
_cell_formula_units_Z   60
loop_
 _symmetry_equiv_pos_site_id
 _symmetry_equiv_pos_as_xyz
  1  'x, y, z'
loop_
 _atom_site_type_symbol
 _atom_site_label
 _atom_site_symmetry_multiplicity
 _atom_site_fract_x
 _atom_site_fract_y
 _atom_site_fract_z
 _atom_site_occupancy
  C  C0  1  0.702157  0.401457  0.926958  1
  C  C1  1  0.030572  0.073042  0.598543  1
  C  C2  1  0.765831  0.801438  0.401618  1
  C  C3  1  0.401457  0.926958  0.702157  1
  C  C4  1  0.030572  0.297843  0.073042  1
  C  C5  1  0.598382  0.968887  0.234169  1
  C  C6  1  0.926958  0.702157  0.401457  1
  C  C7  1  0.598382  0.234169  0.198562  1
  C  C8  1  0.700941  0.299059  0.199002  1
  C  C9  1  0.598382  0.198562  0.968887  1
  C  C10  1  0.030572  0.598543  0.297843  1
  C  C11  1  0.401618  0.801438  0.031113  1
  C  C12  1  0.700941  0.800998  0.299059  1
  C  C13  1  0.073042  0.598543  0.030572  1
  C  C14  1  0.702157  0.926958  0.969428  1
  C  C15  1  0.073042  0.297843  0.598543  1
  C  C16  1  0.234169  0.598382  0.968887  1
  C  C17  1  0.401457  0.969428  0.926958  1
  C  C18  1  0.598543  0.030572  0.073042  1
  C  C19  1  0.598543  0.297843  0.030572  1
  C  C20  1  0.765831  0.031113  0.801438  1
  C  C21  1  0.297843  0.030572  0.598543  1
  C  C22  1  0.299059  0.199002  0.700941  1
  C  C23  1  0.968887  0.234169  0.598382  1
  C  C24  1  0.401618  0.031113  0.765831  1
  C  C25  1  0.969428  0.401457  0.702157  1
  C  C26  1  0.969428  0.926958  0.401457  1
  C  C27  1  0.299059  0.700941  0.800998  1
  C  C28  1  0.401618  0.765831  0.801438  1
  C  C29  1  0.297843  0.073042  0.030572  1
  C  C30  1  0.031113  0.801438  0.765831  1
  C  C31  1  0.031113  0.401618  0.801438  1
  C  C32  1  0.198562  0.968887  0.598382  1
  C  C33  1  0.199002  0.800998  0.700941  1
  C  C34  1  0.198562  0.234169  0.968887  1
  C  C35  1  0.297843  0.598543  0.073042  1
  C  C36  1  0.700941  0.199002  0.800998  1
  C  C37  1  0.765831  0.401618  0.031113  1
  C  C38  1  0.968887  0.198562  0.234169  1
  C  C39  1  0.801438  0.401618  0.765831  1
  C  C40  1  0.926958  0.969428  0.702157  1
  C  C41  1  0.801438  0.031113  0.401618  1
  C  C42  1  0.800998  0.199002  0.299059  1
  C  C43  1  0.968887  0.598382  0.198562  1
  C  C44  1  0.199002  0.299059  0.800998  1
  C  C45  1  0.198562  0.598382  0.234169  1
  C  C46  1  0.702157  0.969428  0.401457  1
  C  C47  1  0.926958  0.401457  0.969428  1
  C  C48  1  0.234169  0.968887  0.198562  1
  C  C49  1  0.800998  0.700941  0.199002  1
  C  C50  1  0.199002  0.700941  0.299059  1
  C  C51  1  0.073042  0.030572  0.297843  1
  C  C52  1  0.598543  0.073042  0.297843  1
  C  C53  1  0.801438  0.765831  0.031113  1
  C  C54  1  0.031113  0.765831  0.401618  1
  C  C55  1  0.969428  0.702157  0.926958  1
  C  C56  1  0.234169  0.198562  0.598382  1
  C  C57  1  0.299059  0.800998  0.199002  1
  C  C58  1  0.401457  0.702157  0.969428  1
  C  C59  1  0.800998  0.299059  0.700941  1
