# generated using pymatgen
data_C
_symmetry_space_group_name_H-M   'P 1'
_cell_length_a   3.54923441
_cell_length_b   3.54923406
_cell_length_c   5.43134353
_cell_angle_alpha   90.00000000
_cell_angle_beta   90.00000000
_cell_angle_gamma   87.74907515
_symmetry_Int_Tables_number   1
_chemical_formula_structural   C
_chemical_formula_sum   C8
_cell_volume   68.36618825
_cell_formula_units_Z   8
loop_
 _symmetry_equiv_pos_site_id
 _symmetry_equiv_pos_as_xyz
  1  'x, y, z'
loop_
 _atom_site_type_symbol
 _atom_site_label
 _atom_site_symmetry_multiplicity
 _atom_site_fract_x
 _atom_site_fract_y
 _atom_site_fract_z
 _atom_site_occupancy
  C  C0  1  0.250000  0.250000  0.130661  1
  C  C1  1  0.391782  0.608218  0.763364  1
  C  C2  1  0.750000  0.750000  0.130661  1
  C  C3  1  0.250000  0.250000  0.869339  1
  C  C4  1  0.750000  0.750000  0.869339  1
  C  C5  1  0.108218  0.891782  0.763364  1
  C  C6  1  0.608218  0.391782  0.236636  1
  C  C7  1  0.891782  0.108218  0.236636  1
