# generated using pymatgen
data_C
_symmetry_space_group_name_H-M   'P 1'
_cell_length_a   2.52225170
_cell_length_b   2.52225198
_cell_length_c   12.43392738
_cell_angle_alpha   90.00000000
_cell_angle_beta   90.00000000
_cell_angle_gamma   119.99999633
_symmetry_Int_Tables_number   1
_chemical_formula_structural   C
_chemical_formula_sum   C12
_cell_volume   68.50399027
_cell_formula_units_Z   12
loop_
 _symmetry_equiv_pos_site_id
 _symmetry_equiv_pos_as_xyz
  1  'x, y, z'
loop_
 _atom_site_type_symbol
 _atom_site_label
 _atom_site_symmetry_multiplicity
 _atom_site_fract_x
 _atom_site_fract_y
 _atom_site_fract_z
 _atom_site_occupancy
  C  C0  1  0.666667  0.333333  0.354860  1
  C  C1  1  0.333333  0.666667  0.854860  1
  C  C2  1  0.666667  0.333333  0.020765  1
  C  C3  1  0.333333  0.666667  0.645140  1
  C  C4  1  0.333333  0.666667  0.979235  1
  C  C5  1  0.000000  0.000000  0.686902  1
  C  C6  1  0.666667  0.333333  0.479235  1
  C  C7  1  0.333333  0.666667  0.520765  1
  C  C8  1  0.000000  0.000000  0.313098  1
  C  C9  1  0.666667  0.333333  0.145140  1
  C  C10  1  0.000000  0.000000  0.813098  1
  C  C11  1  0.000000  0.000000  0.186902  1
