# generated using pymatgen
data_C
_symmetry_space_group_name_H-M   'P 1'
_cell_length_a   9.12871831
_cell_length_b   9.17094495
_cell_length_c   9.96986658
_cell_angle_alpha   117.38279791
_cell_angle_beta   117.24623508
_cell_angle_gamma   89.99999635
_symmetry_Int_Tables_number   1
_chemical_formula_structural   C
_chemical_formula_sum   C60
_cell_volume   635.04196352
_cell_formula_units_Z   60
loop_
 _symmetry_equiv_pos_site_id
 _symmetry_equiv_pos_as_xyz
  1  'x, y, z'
loop_
 _atom_site_type_symbol
 _atom_site_label
 _atom_site_symmetry_multiplicity
 _atom_site_fract_x
 _atom_site_fract_y
 _atom_site_fract_z
 _atom_site_occupancy
  C  C0  1  0.701088  0.235781  0.902839  1
  C  C1  1  0.798249  0.332942  0.097161  1
  C  C2  1  0.947356  0.360268  0.894711  1
  C  C3  1  0.089496  0.917051  0.337362  1
  C  C4  1  0.590078  0.082128  0.845322  1
  C  C5  1  0.409922  0.917872  0.154678  1
  C  C6  1  0.752134  0.579689  0.662638  1
  C  C7  1  0.352175  0.323510  0.392712  1
  C  C8  1  0.701088  0.667058  0.902839  1
  C  C9  1  0.798249  0.764219  0.097161  1
  C  C10  1  0.040537  0.069203  0.392712  1
  C  C11  1  0.647825  0.930797  0.607288  1
  C  C12  1  0.566097  0.769908  0.700701  1
  C  C13  1  0.052644  0.639732  0.105289  1
  C  C14  1  0.052644  0.465557  0.105289  1
  C  C15  1  0.698435  0.774653  0.549306  1
  C  C16  1  0.255244  0.082128  0.845322  1
  C  C17  1  0.247866  0.917051  0.337362  1
  C  C18  1  0.959463  0.930797  0.607288  1
  C  C19  1  0.201751  0.667058  0.902839  1
  C  C20  1  0.947356  0.534443  0.894711  1
  C  C21  1  0.647825  0.676490  0.607288  1
  C  C22  1  0.033940  0.239268  0.809765  1
  C  C23  1  0.587976  0.911650  1.000000  1
  C  C24  1  0.040537  0.323510  0.392712  1
  C  C25  1  0.412024  0.088350  0.000000  1
  C  C26  1  0.134604  0.930793  0.700701  1
  C  C27  1  0.352175  0.069203  0.392712  1
  C  C28  1  0.959463  0.676490  0.607288  1
  C  C29  1  0.966060  0.760732  0.190235  1
  C  C30  1  0.966060  0.429503  0.190235  1
  C  C31  1  0.775826  0.239268  0.809765  1
  C  C32  1  0.247866  0.420311  0.337362  1
  C  C33  1  0.910504  0.082949  0.662638  1
  C  C34  1  0.224174  0.760732  0.190235  1
  C  C35  1  0.744756  0.917872  0.154678  1
  C  C36  1  0.744756  0.236806  0.154678  1
  C  C37  1  0.865396  0.069207  0.299299  1
  C  C38  1  0.587976  0.088350  1.000000  1
  C  C39  1  0.298912  0.332942  0.097161  1
  C  C40  1  0.566097  0.930793  0.700701  1
  C  C41  1  0.089496  0.420311  0.337362  1
  C  C42  1  0.224174  0.429503  0.190235  1
  C  C43  1  0.775826  0.570497  0.809765  1
  C  C44  1  0.409922  0.236806  0.154678  1
  C  C45  1  0.255244  0.763194  0.845322  1
  C  C46  1  0.865396  0.230092  0.299299  1
  C  C47  1  0.033940  0.570497  0.809765  1
  C  C48  1  0.433903  0.230092  0.299299  1
  C  C49  1  0.910504  0.579689  0.662638  1
  C  C50  1  0.134604  0.769908  0.700701  1
  C  C51  1  0.850871  0.774653  0.549306  1
  C  C52  1  0.590078  0.763194  0.845322  1
  C  C53  1  0.301565  0.225347  0.450694  1
  C  C54  1  0.433903  0.069207  0.299299  1
  C  C55  1  0.298912  0.764219  0.097161  1
  C  C56  1  0.412024  0.911650  0.000000  1
  C  C57  1  0.752134  0.082949  0.662638  1
  C  C58  1  0.201751  0.235781  0.902839  1
  C  C59  1  0.149129  0.225347  0.450694  1
