# generated using pymatgen
data_Al4C3
_symmetry_space_group_name_H-M   'P 1'
_cell_length_a   21.30530170
_cell_length_b   5.36706408
_cell_length_c   9.72191004
_cell_angle_alpha   155.03333297
_cell_angle_beta   168.24105522
_cell_angle_gamma   20.95266696
_symmetry_Int_Tables_number   1
_chemical_formula_structural   Al4C3
_chemical_formula_sum   'Al4 C3'
_cell_volume   80.55805114
_cell_formula_units_Z   1
loop_
 _symmetry_equiv_pos_site_id
 _symmetry_equiv_pos_as_xyz
  1  'x, y, z'
loop_
 _atom_site_type_symbol
 _atom_site_label
 _atom_site_symmetry_multiplicity
 _atom_site_fract_x
 _atom_site_fract_y
 _atom_site_fract_z
 _atom_site_occupancy
  Al  Al0  1  0.894217  0.263281  0.402911  1
  Al  Al1  1  0.446408  0.691545  0.065828  1
  Al  Al2  1  0.659251  0.501448  0.712735  1
  Al  Al3  1  0.110753  0.021780  0.049415  1
  C  C4  1  0.938456  0.279033  0.012059  1
  C  C5  1  0.639491  0.584650  0.211905  1
  C  C6  1  0.279636  0.638185  0.479974  1
