# generated using pymatgen
data_ScC
_symmetry_space_group_name_H-M   'P 1'
_cell_length_a   3.95901252
_cell_length_b   3.95876454
_cell_length_c   4.57800211
_cell_angle_alpha   90.00000000
_cell_angle_beta   90.00000000
_cell_angle_gamma   120.00207217
_symmetry_Int_Tables_number   1
_chemical_formula_structural   ScC
_chemical_formula_sum   'Sc2 C2'
_cell_volume   62.13611532
_cell_formula_units_Z   2
loop_
 _symmetry_equiv_pos_site_id
 _symmetry_equiv_pos_as_xyz
  1  'x, y, z'
loop_
 _atom_site_type_symbol
 _atom_site_label
 _atom_site_symmetry_multiplicity
 _atom_site_fract_x
 _atom_site_fract_y
 _atom_site_fract_z
 _atom_site_occupancy
  Sc  Sc0  1  0.666667  0.333333  0.437245  1
  Sc  Sc1  1  0.333333  0.666667  0.937245  1
  C  C2  1  0.666672  0.333343  0.937755  1
  C  C3  1  0.333328  0.666657  0.437755  1
