# generated using pymatgen
data_C
_symmetry_space_group_name_H-M   'P 1'
_cell_length_a   2.46775188
_cell_length_b   2.46775182
_cell_length_c   25.82922129
_cell_angle_alpha   90.01791822
_cell_angle_beta   89.98208179
_cell_angle_gamma   119.99020942
_symmetry_Int_Tables_number   1
_chemical_formula_structural   C
_chemical_formula_sum   C4
_cell_volume   136.23469589
_cell_formula_units_Z   4
loop_
 _symmetry_equiv_pos_site_id
 _symmetry_equiv_pos_as_xyz
  1  'x, y, z'
loop_
 _atom_site_type_symbol
 _atom_site_label
 _atom_site_symmetry_multiplicity
 _atom_site_fract_x
 _atom_site_fract_y
 _atom_site_fract_z
 _atom_site_occupancy
  C  C0  1  0.000222  0.999778  0.514289  1
  C  C1  1  0.999770  0.000230  0.656669  1
  C  C2  1  0.666189  0.333811  0.656660  1
  C  C3  1  0.333819  0.666181  0.514272  1
